$ MSC.Nastran input file created on November  24, 2021 at 20:05:46 by
$ Patran 2021.1  (Student Edition)
$ Direct Text Input for Nastran System Cell Section
$ Direct Text Input for File Management Section
$ Direct Text Input for Executive Control
$ Linear Static Analysis, Database
SOL 101
CEND
$ Direct Text Input for Global Case Control Data
TITLE = MSC.Nastran job created on 24-Nov-21 at 20:05:42
ECHO = NONE
SUBCASE 1
   SUBTITLE=Default
   SPC = 2
   LOAD = 2
   DISPLACEMENT(SORT1,REAL)=ALL
   SPCFORCES(SORT1,REAL)=ALL
   OLOAD(SORT1,REAL)=ALL
   STRAIN(SORT1,REAL,VONMISES,STRCUR,BILIN)=ALL
   STRESS(SORT1,REAL,VONMISES,BILIN)=ALL
$ Direct Text Input for this Subcase
BEGIN BULK
$ Direct Text Input for Bulk Data
MDLPRM   HDF5    0
PARAM   PRTMAXIM YES
$ Elements and Element Properties for region : LONGARINAS_SUPERIORES
PBARL    1       1               T
         15.72   10.48   1.048   1.048
$ Pset: "LONGARINAS_SUPERIORES" will be imported as: "pbarl.1"
CBAR     8633    1       21      4173    0.      0.      1.
                         0.      0.      -3.28   0.      0.      -3.28
CBAR     8634    1       4173    4194    0.      0.      1.
                         0.      0.      -3.28   0.      0.      -3.28
CBAR     8635    1       4194    4215    0.      0.      1.
                         0.      0.      -3.28   0.      0.      -3.28
CBAR     8636    1       4215    4236    0.      0.      1.
                         0.      0.      -3.28   0.      0.      -3.28
CBAR     8637    1       4236    4257    0.      0.      1.
                         0.      0.      -3.28   0.      0.      -3.28
CBAR     8638    1       4257    4278    0.      0.      1.
                         0.      0.      -3.28   0.      0.      -3.28
CBAR     8639    1       4278    4299    0.      0.      1.
                         0.      0.      -3.28   0.      0.      -3.28
CBAR     8640    1       4299    4320    0.      0.      1.
                         0.      0.      -3.28   0.      0.      -3.28
CBAR     8641    1       4320    4341    0.      0.      1.
                         0.      0.      -3.28   0.      0.      -3.28
CBAR     8642    1       4341    4362    0.      0.      1.
                         0.      0.      -3.28   0.      0.      -3.28
CBAR     8643    1       4362    4383    0.      0.      1.
                         0.      0.      -3.28   0.      0.      -3.28
CBAR     8644    1       4383    4404    0.      0.      1.
                         0.      0.      -3.28   0.      0.      -3.28
CBAR     8645    1       4404    4425    0.      0.      1.
                         0.      0.      -3.28   0.      0.      -3.28
CBAR     8646    1       4425    4446    0.      0.      1.
                         0.      0.      -3.28   0.      0.      -3.28
CBAR     8647    1       4446    4467    0.      0.      1.
                         0.      0.      -3.28   0.      0.      -3.28
CBAR     8648    1       4467    4488    0.      0.      1.
                         0.      0.      -3.28   0.      0.      -3.28
CBAR     8649    1       4488    4509    0.      0.      1.
                         0.      0.      -3.28   0.      0.      -3.28
CBAR     8650    1       4509    4530    0.      0.      1.
                         0.      0.      -3.28   0.      0.      -3.28
CBAR     8651    1       4530    4551    0.      0.      1.
                         0.      0.      -3.28   0.      0.      -3.28
CBAR     8652    1       4551    4572    0.      0.      1.
                         0.      0.      -3.28   0.      0.      -3.28
$ ... 64 like lines cut
$ Elements and Element Properties for region : LONGARINAS_INFERIORES
PBARL    2       1               T
         15.72   10.48   1.048   1.048
$ Pset: "LONGARINAS_INFERIORES" will be imported as: "pbarl.2"
CBAR     8685    2       1       3430    0.      0.      -1.
                         0.      0.      3.28    0.      0.      3.28
CBAR     8686    2       3430    3457    0.      0.      -1.
                         0.      0.      3.28    0.      0.      3.28
CBAR     8687    2       3457    3484    0.      0.      -1.
                         0.      0.      3.28    0.      0.      3.28
CBAR     8688    2       3484    3511    0.      0.      -1.
                         0.      0.      3.28    0.      0.      3.28
CBAR     8689    2       3511    3538    0.      0.      -1.
                         0.      0.      3.28    0.      0.      3.28
CBAR     8690    2       3538    3565    0.      0.      -1.
                         0.      0.      3.28    0.      0.      3.28
CBAR     8691    2       3565    3592    0.      0.      -1.
                         0.      0.      3.28    0.      0.      3.28
CBAR     8692    2       3592    3619    0.      0.      -1.
                         0.      0.      3.28    0.      0.      3.28
CBAR     8693    2       3619    3646    0.      0.      -1.
                         0.      0.      3.28    0.      0.      3.28
CBAR     8694    2       3646    3673    0.      0.      -1.
                         0.      0.      3.28    0.      0.      3.28
CBAR     8695    2       3673    3700    0.      0.      -1.
                         0.      0.      3.28    0.      0.      3.28
CBAR     8696    2       3700    3727    0.      0.      -1.
                         0.      0.      3.28    0.      0.      3.28
CBAR     8697    2       3727    3754    0.      0.      -1.
                         0.      0.      3.28    0.      0.      3.28
CBAR     8698    2       3754    3781    0.      0.      -1.
                         0.      0.      3.28    0.      0.      3.28
CBAR     8699    2       3781    3808    0.      0.      -1.
                         0.      0.      3.28    0.      0.      3.28
CBAR     8700    2       3808    3835    0.      0.      -1.
                         0.      0.      3.28    0.      0.      3.28
CBAR     8701    2       3835    3862    0.      0.      -1.
                         0.      0.      3.28    0.      0.      3.28
CBAR     8702    2       3862    3889    0.      0.      -1.
                         0.      0.      3.28    0.      0.      3.28
CBAR     8703    2       3889    3916    0.      0.      -1.
                         0.      0.      3.28    0.      0.      3.28
CBAR     8704    2       3916    3943    0.      0.      -1.
                         0.      0.      3.28    0.      0.      3.28
$ ... 64 like lines cut
$ Elements and Element Properties for region : NERVURAS_SUPERIORES
PBARL    3       1               T
         15.72   10.48   1.048   1.048
$ Pset: "NERVURAS_SUPERIORES" will be imported as: "pbarl.3"
CBAR     8321    3       21      42      0.      0.      1.
                         0.      0.      -3.28   0.      0.      -3.28
CBAR     8322    3       42      63      0.      0.      1.
                         0.      0.      -3.28   0.      0.      -3.28
CBAR     8323    3       63      84      0.      0.      1.
                         0.      0.      -3.28   0.      0.      -3.28
CBAR     8324    3       84      105     0.      0.      1.
                         0.      0.      -3.28   0.      0.      -3.28
CBAR     8325    3       105     126     0.      0.      1.
                         0.      0.      -3.28   0.      0.      -3.28
CBAR     8326    3       126     147     0.      0.      1.
                         0.      0.      -3.28   0.      0.      -3.28
CBAR     8327    3       147     168     0.      0.      1.
                         0.      0.      -3.28   0.      0.      -3.28
CBAR     8328    3       168     189     0.      0.      1.
                         0.      0.      -3.28   0.      0.      -3.28
CBAR     8329    3       189     210     0.      0.      1.
                         0.      0.      -3.28   0.      0.      -3.28
CBAR     8330    3       210     231     0.      0.      1.
                         0.      0.      -3.28   0.      0.      -3.28
CBAR     8331    3       231     252     0.      0.      1.
                         0.      0.      -3.28   0.      0.      -3.28
CBAR     8332    3       252     273     0.      0.      1.
                         0.      0.      -3.28   0.      0.      -3.28
CBAR     8333    3       273     294     0.      0.      1.
                         0.      0.      -3.28   0.      0.      -3.28
CBAR     8334    3       294     315     0.      0.      1.
                         0.      0.      -3.28   0.      0.      -3.28
CBAR     8335    3       315     336     0.      0.      1.
                         0.      0.      -3.28   0.      0.      -3.28
CBAR     8336    3       336     357     0.      0.      1.
                         0.      0.      -3.28   0.      0.      -3.28
CBAR     8337    3       357     378     0.      0.      1.
                         0.      0.      -3.28   0.      0.      -3.28
CBAR     8338    3       378     399     0.      0.      1.
                         0.      0.      -3.28   0.      0.      -3.28
CBAR     8339    3       399     420     0.      0.      1.
                         0.      0.      -3.28   0.      0.      -3.28
CBAR     8340    3       420     441     0.      0.      1.
                         0.      0.      -3.28   0.      0.      -3.28
$ ... 272 like lines cut
$ Elements and Element Properties for region : NERVURAS_INFERIORES
PBARL    4       1               T
         15.72   10.48   1.048   1.048
$ Pset: "NERVURAS_INFERIORES" will be imported as: "pbarl.4"
CBAR     8477    4       1       22      0.      0.      -1.
                         0.      0.      3.28    0.      0.      3.28
CBAR     8478    4       22      43      0.      0.      -1.
                         0.      0.      3.28    0.      0.      3.28
CBAR     8479    4       43      64      0.      0.      -1.
                         0.      0.      3.28    0.      0.      3.28
CBAR     8480    4       64      85      0.      0.      -1.
                         0.      0.      3.28    0.      0.      3.28
CBAR     8481    4       85      106     0.      0.      -1.
                         0.      0.      3.28    0.      0.      3.28
CBAR     8482    4       106     127     0.      0.      -1.
                         0.      0.      3.28    0.      0.      3.28
CBAR     8483    4       127     148     0.      0.      -1.
                         0.      0.      3.28    0.      0.      3.28
CBAR     8484    4       148     169     0.      0.      -1.
                         0.      0.      3.28    0.      0.      3.28
CBAR     8485    4       169     190     0.      0.      -1.
                         0.      0.      3.28    0.      0.      3.28
CBAR     8486    4       190     211     0.      0.      -1.
                         0.      0.      3.28    0.      0.      3.28
CBAR     8487    4       211     232     0.      0.      -1.
                         0.      0.      3.28    0.      0.      3.28
CBAR     8488    4       232     253     0.      0.      -1.
                         0.      0.      3.28    0.      0.      3.28
CBAR     8489    4       253     274     0.      0.      -1.
                         0.      0.      3.28    0.      0.      3.28
CBAR     8490    4       274     295     0.      0.      -1.
                         0.      0.      3.28    0.      0.      3.28
CBAR     8491    4       295     316     0.      0.      -1.
                         0.      0.      3.28    0.      0.      3.28
CBAR     8492    4       316     337     0.      0.      -1.
                         0.      0.      3.28    0.      0.      3.28
CBAR     8493    4       337     358     0.      0.      -1.
                         0.      0.      3.28    0.      0.      3.28
CBAR     8494    4       358     379     0.      0.      -1.
                         0.      0.      3.28    0.      0.      3.28
CBAR     8495    4       379     400     0.      0.      -1.
                         0.      0.      3.28    0.      0.      3.28
CBAR     8496    4       400     421     0.      0.      -1.
                         0.      0.      3.28    0.      0.      3.28
$ ... 272 like lines cut
$ Elements and Element Properties for region : STRINGERS_INFERIORES
PBARL    5       1               HAT
*        15.72           1.048           15.72           5.2399998
*
$ Pset: "STRINGERS_INFERIORES" will be imported as: "pbarl.5"
CBAR     8217    5       547     3456    0.      0.      1.
*                                        0.              0.
*        9.0600004       0.              0.              9.0600004
CBAR     8218    5       3456    3483    0.      0.      1.
*                                        0.              0.
*        9.0600004       0.              0.              9.0600004
CBAR     8219    5       3483    3510    0.      0.      1.
*                                        0.              0.
*        9.0600004       0.              0.              9.0600004
CBAR     8220    5       3510    3537    0.      0.      1.
*                                        0.              0.
*        9.0600004       0.              0.              9.0600004
CBAR     8221    5       3537    3564    0.      0.      1.
*                                        0.              0.
*        9.0600004       0.              0.              9.0600004
CBAR     8222    5       3564    3591    0.      0.      1.
*                                        0.              0.
*        9.0600004       0.              0.              9.0600004
CBAR     8223    5       3591    3618    0.      0.      1.
*                                        0.              0.
*        9.0600004       0.              0.              9.0600004
CBAR     8224    5       3618    3645    0.      0.      1.
*                                        0.              0.
*        9.0600004       0.              0.              9.0600004
CBAR     8225    5       3645    3672    0.      0.      1.
*                                        0.              0.
*        9.0600004       0.              0.              9.0600004
CBAR     8226    5       3672    3699    0.      0.      1.
*                                        0.              0.
*        9.0600004       0.              0.              9.0600004
CBAR     8227    5       3699    3726    0.      0.      1.
*                                        0.              0.
*        9.0600004       0.              0.              9.0600004
CBAR     8228    5       3726    3753    0.      0.      1.
*                                        0.              0.
*        9.0600004       0.              0.              9.0600004
CBAR     8229    5       3753    3780    0.      0.      1.
*                                        0.              0.
*        9.0600004       0.              0.              9.0600004
CBAR     8230    5       3780    3807    0.      0.      1.
*                                        0.              0.
*        9.0600004       0.              0.              9.0600004
CBAR     8231    5       3807    3834    0.      0.      1.
*                                        0.              0.
*        9.0600004       0.              0.              9.0600004
CBAR     8232    5       3834    3861    0.      0.      1.
*                                        0.              0.
*        9.0600004       0.              0.              9.0600004
CBAR     8233    5       3861    3888    0.      0.      1.
*                                        0.              0.
*        9.0600004       0.              0.              9.0600004
CBAR     8234    5       3888    3915    0.      0.      1.
*                                        0.              0.
*        9.0600004       0.              0.              9.0600004
CBAR     8235    5       3915    3942    0.      0.      1.
*                                        0.              0.
*        9.0600004       0.              0.              9.0600004
CBAR     8236    5       3942    3969    0.      0.      1.
*                                        0.              0.
*        9.0600004       0.              0.              9.0600004
$ ... 96 like lines cut
$ Elements and Element Properties for region : REVESTIMENTO
PSHELL   6       2       1.572   2               2
$ Pset: "REVESTIMENTO" will be imported as: "pshell.6"
CQUAD4   1       6       1       2       23      22
CQUAD4   2       6       2       3       24      23
CQUAD4   3       6       3       4       25      24
CQUAD4   4       6       4       5       26      25
CQUAD4   5       6       5       6       27      26
CQUAD4   6       6       6       7       28      27
CQUAD4   7       6       7       8       29      28
CQUAD4   8       6       8       9       30      29
CQUAD4   9       6       9       10      31      30
CQUAD4   10      6       10      11      32      31
CQUAD4   11      6       11      12      33      32
CQUAD4   12      6       12      13      34      33
CQUAD4   13      6       13      14      35      34
CQUAD4   14      6       14      15      36      35
CQUAD4   15      6       15      16      37      36
CQUAD4   16      6       16      17      38      37
CQUAD4   17      6       17      18      39      38
CQUAD4   18      6       18      19      40      39
CQUAD4   19      6       19      20      41      40
CQUAD4   20      6       20      21      42      41
$ ... 6168 like lines cut
$ Elements and Element Properties for region : COMPOSITO
$ Composite Property Reference Material: Laminado
$ Composite Material Description :
PCOMP    7
         3       .1      0.      YES     3       .1      45.     YES
         3       .1      -45.    YES     3       .1      90.     YES
         3       .1      90.     YES     3       .1      -45.    YES
         3       .1      45.     YES     3       .1      0.      YES
$ Pset: "COMPOSITO" will be imported as: "pcomp.7"
CQUAD4   4317    7       21      42      4727    4173
CQUAD4   4318    7       42      63      4728    4727
CQUAD4   4319    7       63      84      4729    4728
CQUAD4   4320    7       84      105     4730    4729
CQUAD4   4321    7       105     126     4731    4730
CQUAD4   4322    7       126     147     4732    4731
CQUAD4   4323    7       147     168     4733    4732
CQUAD4   4324    7       168     189     4734    4733
CQUAD4   4325    7       189     210     4735    4734
CQUAD4   4326    7       210     231     4736    4735
CQUAD4   4327    7       231     252     4737    4736
CQUAD4   4328    7       252     273     4738    4737
CQUAD4   4329    7       273     294     4739    4738
CQUAD4   4330    7       294     315     4740    4739
CQUAD4   4331    7       315     336     4741    4740
CQUAD4   4332    7       336     357     4742    4741
CQUAD4   4333    7       357     378     4743    4742
CQUAD4   4334    7       378     399     4744    4743
CQUAD4   4335    7       399     420     4745    4744
CQUAD4   4336    7       420     441     4746    4745
$ ... 2008 like lines cut
$ Referenced Material Records
$ Material Record : Al7475
$ Description of Material : Date: 14-Jul-21           Time: 15:08:11
MAT1     1      68947.57         .33
$ Material Record : Al2024
$ Description of Material : Date: 14-Jul-21           Time: 15:08:11
MAT1*    2               72394.953                       .33
*
$ Material Record : Ply
$ Description of Material : Date: 11-Nov-21           Time: 14:03:05
MAT8     3       100000. 10000.  .34     5400.   5400.   3050.
$ Nodes of the Entire Model
GRID     1               0.      0.      0.
GRID*    2                               0.              0.
*       7.85999965667725
GRID*    3                               0.              0.
*       15.7199993133545
GRID*    4                               0.              0.
*       23.5799999237061
GRID*    5                               0.              0.
*       31.4400005340576
GRID*    6                               0.              0.
*       39.2999992370605
GRID*    7                               0.              0.
*       47.1599998474121
GRID*    8                               0.              0.
*       55.0199966430664
GRID*    9                               0.              0.
*       62.8800048828125
GRID*    10                              0.              0.
*       70.7399978637695
GRID*    11                              0.              0.
*       78.5999984741211
GRID*    12                              0.              0.
*       86.4599990844727
GRID*    13                              0.              0.
*       94.3199996948242
GRID*    14                              0.              0.
*       102.179992675781
GRID*    15                              0.              0.
*       110.039993286133
GRID*    16                              0.              0.
*       117.899993896484
GRID*    17                              0.              0.
*       125.760009765625
GRID*    18                              0.              0.
*       133.619995117188
GRID*    19                              0.              0.
*       141.479995727539
GRID*    20                              0.              0.
*        149.34001159668
GRID*    21                              0.              0.
*       157.199996948242
$ ... 2688 like lines cut
GRID     1408            524.    0.      0.
GRID*    1409                            524.            0.
*       7.85999917984009
GRID*    1410                            524.            0.
*       15.7199983596802
GRID*    1411                            524.            0.
*       23.5799980163574
GRID*    1412                            524.            0.
*        31.439998626709
GRID*    1413                            524.            0.
*       39.2999992370605
GRID*    1414                            524.            0.
*       47.1599960327148
GRID*    1415                            524.            0.
*       55.0199966430664
GRID*    1416                            524.            0.
*        62.879997253418
GRID*    1417                            524.            0.
*       70.7399978637695
GRID*    1418                            524.            0.
*       78.5999984741211
GRID*    1419                            524.            0.
*       86.4599990844727
GRID*    1420                            524.            0.
*       94.3199920654297
GRID*    1421                            524.            0.
*       102.179992675781
GRID*    1422                            524.            0.
*       110.039993286133
GRID*    1423                            524.            0.
*       117.899993896484
GRID*    1424                            524.            0.
*        125.76000213623
GRID*    1425                            524.            0.
*       133.619995117188
GRID*    1426                            524.            0.
*       141.479995727539
GRID*    1427                            524.            0.
*        149.34001159668
GRID*    1428                            524.            0.
*       157.199996948242
$ ... 13664 like lines cut
$ Loads for Load Case : Default
SPCADD   2       1
LOAD     2       1.      1.      1       1.      3       1.      4
         1.      5
$ Displacement Constraints of Load Set : ENGASTE
SPC1     1       123456  1       THRU    21
SPC1     1       123456  547     567     1114    1134
SPC1     1       123456  1681    THRU    1701
$ Nodal Forces of Load Set : F1
FORCE*   1               1702            0               47658.629
*        0.              0.              1.
FORCE*   1               1722            0               47658.629
*        0.              0.              1.
$ Nodal Forces of Load Set : F2
FORCE    3       3382    0       15886.2 0.      0.      1.
FORCE    3       3402    0       15886.2 0.      0.      1.
$ Nodal Forces of Load Set : F3
FORCE    4       1702    0       6354.48 0.      -1.     0.
FORCE    4       3382    0       6354.48 0.      -1.     0.
$ Nodal Forces of Load Set : F4
FORCE*   5               1722            0               9531.7197
*        0.              1.              0.
FORCE*   5               3402            0               9531.7197
*        0.              1.              0.
$ Referenced Coordinate Frames
ENDDATA 79e23705
