$ MSC.Nastran input file created on November  24, 2021 at 20:30:52 by
$ Patran 2021.1  (Student Edition)
$ Direct Text Input for Nastran System Cell Section
$ Direct Text Input for File Management Section
$ Direct Text Input for Executive Control
$ Linear Static Analysis, Database
SOL 101
CEND
$ Direct Text Input for Global Case Control Data
TITLE = MSC.Nastran job created on 24-Nov-21 at 20:30:48
ECHO = NONE
SUBCASE 1
   SUBTITLE=Default
   SPC = 2
   LOAD = 2
   DISPLACEMENT(SORT1,REAL)=ALL
   SPCFORCES(SORT1,REAL)=ALL
   OLOAD(SORT1,REAL)=ALL
   STRAIN(SORT1,REAL,VONMISES,STRCUR,BILIN)=ALL
   STRESS(SORT1,REAL,VONMISES,BILIN)=ALL
$ Direct Text Input for this Subcase
BEGIN BULK
$ Direct Text Input for Bulk Data
MDLPRM   HDF5    0
PARAM   PRTMAXIM YES
$ Elements and Element Properties for region : LONGARINAS_SUPERIORES
PBARL    1       1               T
         15.72   10.48   1.048   1.048
$ Pset: "LONGARINAS_SUPERIORES" will be imported as: "pbarl.1"
CBAR     3713    1       16      1953    0.      0.      1.
                         0.      0.      -3.28   0.      0.      -3.28
CBAR     3714    1       1953    1969    0.      0.      1.
                         0.      0.      -3.28   0.      0.      -3.28
CBAR     3715    1       1969    1985    0.      0.      1.
                         0.      0.      -3.28   0.      0.      -3.28
CBAR     3716    1       1985    2001    0.      0.      1.
                         0.      0.      -3.28   0.      0.      -3.28
CBAR     3717    1       2001    2017    0.      0.      1.
                         0.      0.      -3.28   0.      0.      -3.28
CBAR     3718    1       2017    2033    0.      0.      1.
                         0.      0.      -3.28   0.      0.      -3.28
CBAR     3719    1       2033    2049    0.      0.      1.
                         0.      0.      -3.28   0.      0.      -3.28
CBAR     3720    1       2049    2065    0.      0.      1.
                         0.      0.      -3.28   0.      0.      -3.28
CBAR     3721    1       2065    2081    0.      0.      1.
                         0.      0.      -3.28   0.      0.      -3.28
CBAR     3722    1       2081    2097    0.      0.      1.
                         0.      0.      -3.28   0.      0.      -3.28
CBAR     3723    1       2097    2113    0.      0.      1.
                         0.      0.      -3.28   0.      0.      -3.28
CBAR     3724    1       2113    2129    0.      0.      1.
                         0.      0.      -3.28   0.      0.      -3.28
CBAR     3725    1       2129    2145    0.      0.      1.
                         0.      0.      -3.28   0.      0.      -3.28
CBAR     3726    1       2145    2161    0.      0.      1.
                         0.      0.      -3.28   0.      0.      -3.28
CBAR     3727    1       2161    2177    0.      0.      1.
                         0.      0.      -3.28   0.      0.      -3.28
CBAR     3728    1       2177    832     0.      0.      1.
                         0.      0.      -3.28   0.      0.      -3.28
CBAR     3729    1       816     3381    0.      0.      1.
                         0.      0.      -3.28   0.      0.      -3.28
CBAR     3730    1       3381    3397    0.      0.      1.
                         0.      0.      -3.28   0.      0.      -3.28
CBAR     3731    1       3397    3413    0.      0.      1.
                         0.      0.      -3.28   0.      0.      -3.28
CBAR     3732    1       3413    3429    0.      0.      1.
                         0.      0.      -3.28   0.      0.      -3.28
$ ... 24 like lines cut
$ Elements and Element Properties for region : LONGARINAS_INFERIORES
PBARL    2       1               T
         15.72   10.48   1.048   1.048
$ Pset: "LONGARINAS_INFERIORES" will be imported as: "pbarl.2"
CBAR     3745    2       1       1650    0.      0.      -1.
                         0.      0.      3.28    0.      0.      3.28
CBAR     3746    2       1650    1667    0.      0.      -1.
                         0.      0.      3.28    0.      0.      3.28
CBAR     3747    2       1667    1684    0.      0.      -1.
                         0.      0.      3.28    0.      0.      3.28
CBAR     3748    2       1684    1701    0.      0.      -1.
                         0.      0.      3.28    0.      0.      3.28
CBAR     3749    2       1701    1718    0.      0.      -1.
                         0.      0.      3.28    0.      0.      3.28
CBAR     3750    2       1718    1735    0.      0.      -1.
                         0.      0.      3.28    0.      0.      3.28
CBAR     3751    2       1735    1752    0.      0.      -1.
                         0.      0.      3.28    0.      0.      3.28
CBAR     3752    2       1752    1769    0.      0.      -1.
                         0.      0.      3.28    0.      0.      3.28
CBAR     3753    2       1769    1786    0.      0.      -1.
                         0.      0.      3.28    0.      0.      3.28
CBAR     3754    2       1786    1803    0.      0.      -1.
                         0.      0.      3.28    0.      0.      3.28
CBAR     3755    2       1803    1820    0.      0.      -1.
                         0.      0.      3.28    0.      0.      3.28
CBAR     3756    2       1820    1837    0.      0.      -1.
                         0.      0.      3.28    0.      0.      3.28
CBAR     3757    2       1837    1854    0.      0.      -1.
                         0.      0.      3.28    0.      0.      3.28
CBAR     3758    2       1854    1871    0.      0.      -1.
                         0.      0.      3.28    0.      0.      3.28
CBAR     3759    2       1871    1888    0.      0.      -1.
                         0.      0.      3.28    0.      0.      3.28
CBAR     3760    2       1888    817     0.      0.      -1.
                         0.      0.      3.28    0.      0.      3.28
CBAR     3761    2       801     3094    0.      0.      -1.
                         0.      0.      3.28    0.      0.      3.28
CBAR     3762    2       3094    3111    0.      0.      -1.
                         0.      0.      3.28    0.      0.      3.28
CBAR     3763    2       3111    3128    0.      0.      -1.
                         0.      0.      3.28    0.      0.      3.28
CBAR     3764    2       3128    3145    0.      0.      -1.
                         0.      0.      3.28    0.      0.      3.28
$ ... 24 like lines cut
$ Elements and Element Properties for region : NERVURAS_SUPERIORES
PBARL    3       1               T
         15.72   10.48   1.048   1.048
$ Pset: "NERVURAS_SUPERIORES" will be imported as: "pbarl.3"
CBAR     3521    3       16      32      0.      0.      1.
                         0.      0.      -3.28   0.      0.      -3.28
CBAR     3522    3       32      48      0.      0.      1.
                         0.      0.      -3.28   0.      0.      -3.28
CBAR     3523    3       48      64      0.      0.      1.
                         0.      0.      -3.28   0.      0.      -3.28
CBAR     3524    3       64      80      0.      0.      1.
                         0.      0.      -3.28   0.      0.      -3.28
CBAR     3525    3       80      96      0.      0.      1.
                         0.      0.      -3.28   0.      0.      -3.28
CBAR     3526    3       96      112     0.      0.      1.
                         0.      0.      -3.28   0.      0.      -3.28
CBAR     3527    3       112     128     0.      0.      1.
                         0.      0.      -3.28   0.      0.      -3.28
CBAR     3528    3       128     144     0.      0.      1.
                         0.      0.      -3.28   0.      0.      -3.28
CBAR     3529    3       144     160     0.      0.      1.
                         0.      0.      -3.28   0.      0.      -3.28
CBAR     3530    3       160     176     0.      0.      1.
                         0.      0.      -3.28   0.      0.      -3.28
CBAR     3531    3       176     192     0.      0.      1.
                         0.      0.      -3.28   0.      0.      -3.28
CBAR     3532    3       192     208     0.      0.      1.
                         0.      0.      -3.28   0.      0.      -3.28
CBAR     3533    3       208     224     0.      0.      1.
                         0.      0.      -3.28   0.      0.      -3.28
CBAR     3534    3       224     240     0.      0.      1.
                         0.      0.      -3.28   0.      0.      -3.28
CBAR     3535    3       240     256     0.      0.      1.
                         0.      0.      -3.28   0.      0.      -3.28
CBAR     3536    3       256     272     0.      0.      1.
                         0.      0.      -3.28   0.      0.      -3.28
CBAR     3537    3       272     304     0.      0.      1.
                         0.      0.      -3.28   0.      0.      -3.28
CBAR     3538    3       304     320     0.      0.      1.
                         0.      0.      -3.28   0.      0.      -3.28
CBAR     3539    3       320     336     0.      0.      1.
                         0.      0.      -3.28   0.      0.      -3.28
CBAR     3540    3       336     352     0.      0.      1.
                         0.      0.      -3.28   0.      0.      -3.28
$ ... 152 like lines cut
$ Elements and Element Properties for region : NERVURAS_INFERIORES
PBARL    4       1               T
         15.72   10.48   1.048   1.048
$ Pset: "NERVURAS_INFERIORES" will be imported as: "pbarl.4"
CBAR     3617    4       1       17      0.      0.      -1.
                         0.      0.      3.28    0.      0.      3.28
CBAR     3618    4       17      33      0.      0.      -1.
                         0.      0.      3.28    0.      0.      3.28
CBAR     3619    4       33      49      0.      0.      -1.
                         0.      0.      3.28    0.      0.      3.28
CBAR     3620    4       49      65      0.      0.      -1.
                         0.      0.      3.28    0.      0.      3.28
CBAR     3621    4       65      81      0.      0.      -1.
                         0.      0.      3.28    0.      0.      3.28
CBAR     3622    4       81      97      0.      0.      -1.
                         0.      0.      3.28    0.      0.      3.28
CBAR     3623    4       97      113     0.      0.      -1.
                         0.      0.      3.28    0.      0.      3.28
CBAR     3624    4       113     129     0.      0.      -1.
                         0.      0.      3.28    0.      0.      3.28
CBAR     3625    4       129     145     0.      0.      -1.
                         0.      0.      3.28    0.      0.      3.28
CBAR     3626    4       145     161     0.      0.      -1.
                         0.      0.      3.28    0.      0.      3.28
CBAR     3627    4       161     177     0.      0.      -1.
                         0.      0.      3.28    0.      0.      3.28
CBAR     3628    4       177     193     0.      0.      -1.
                         0.      0.      3.28    0.      0.      3.28
CBAR     3629    4       193     209     0.      0.      -1.
                         0.      0.      3.28    0.      0.      3.28
CBAR     3630    4       209     225     0.      0.      -1.
                         0.      0.      3.28    0.      0.      3.28
CBAR     3631    4       225     241     0.      0.      -1.
                         0.      0.      3.28    0.      0.      3.28
CBAR     3632    4       241     257     0.      0.      -1.
                         0.      0.      3.28    0.      0.      3.28
CBAR     3633    4       257     289     0.      0.      -1.
                         0.      0.      3.28    0.      0.      3.28
CBAR     3634    4       289     305     0.      0.      -1.
                         0.      0.      3.28    0.      0.      3.28
CBAR     3635    4       305     321     0.      0.      -1.
                         0.      0.      3.28    0.      0.      3.28
CBAR     3636    4       321     337     0.      0.      -1.
                         0.      0.      3.28    0.      0.      3.28
$ ... 152 like lines cut
$ Elements and Element Properties for region : STRINGERS_INFERIORES
PBARL    5       1               HAT
*        15.72           1.048           15.72           5.2399998
*
$ Pset: "STRINGERS_INFERIORES" will be imported as: "pbarl.5"
CBAR     3457    5       257     1666    0.      0.      1.
*                                        0.              0.
*        9.0600004       0.              0.              9.0600004
CBAR     3458    5       1666    1683    0.      0.      1.
*                                        0.              0.
*        9.0600004       0.              0.              9.0600004
CBAR     3459    5       1683    1700    0.      0.      1.
*                                        0.              0.
*        9.0600004       0.              0.              9.0600004
CBAR     3460    5       1700    1717    0.      0.      1.
*                                        0.              0.
*        9.0600004       0.              0.              9.0600004
CBAR     3461    5       1717    1734    0.      0.      1.
*                                        0.              0.
*        9.0600004       0.              0.              9.0600004
CBAR     3462    5       1734    1751    0.      0.      1.
*                                        0.              0.
*        9.0600004       0.              0.              9.0600004
CBAR     3463    5       1751    1768    0.      0.      1.
*                                        0.              0.
*        9.0600004       0.              0.              9.0600004
CBAR     3464    5       1768    1785    0.      0.      1.
*                                        0.              0.
*        9.0600004       0.              0.              9.0600004
CBAR     3465    5       1785    1802    0.      0.      1.
*                                        0.              0.
*        9.0600004       0.              0.              9.0600004
CBAR     3466    5       1802    1819    0.      0.      1.
*                                        0.              0.
*        9.0600004       0.              0.              9.0600004
CBAR     3467    5       1819    1836    0.      0.      1.
*                                        0.              0.
*        9.0600004       0.              0.              9.0600004
CBAR     3468    5       1836    1853    0.      0.      1.
*                                        0.              0.
*        9.0600004       0.              0.              9.0600004
CBAR     3469    5       1853    1870    0.      0.      1.
*                                        0.              0.
*        9.0600004       0.              0.              9.0600004
CBAR     3470    5       1870    1887    0.      0.      1.
*                                        0.              0.
*        9.0600004       0.              0.              9.0600004
CBAR     3471    5       1887    1904    0.      0.      1.
*                                        0.              0.
*        9.0600004       0.              0.              9.0600004
CBAR     3472    5       1904    1073    0.      0.      1.
*                                        0.              0.
*        9.0600004       0.              0.              9.0600004
CBAR     3473    5       529     2516    0.      0.      1.
*                                        0.              0.
*        9.0600004       0.              0.              9.0600004
CBAR     3474    5       2516    2533    0.      0.      1.
*                                        0.              0.
*        9.0600004       0.              0.              9.0600004
CBAR     3475    5       2533    2550    0.      0.      1.
*                                        0.              0.
*        9.0600004       0.              0.              9.0600004
CBAR     3476    5       2550    2567    0.      0.      1.
*                                        0.              0.
*        9.0600004       0.              0.              9.0600004
$ ... 36 like lines cut
$ Elements and Element Properties for region : REVESTIMENTO
PSHELL   6       2       1.572   2               2
$ Pset: "REVESTIMENTO" will be imported as: "pshell.6"
CQUAD4   1       6       1       2       18      17
CQUAD4   2       6       2       3       19      18
CQUAD4   3       6       3       4       20      19
CQUAD4   4       6       4       5       21      20
CQUAD4   5       6       5       6       22      21
CQUAD4   6       6       6       7       23      22
CQUAD4   7       6       7       8       24      23
CQUAD4   8       6       8       9       25      24
CQUAD4   9       6       9       10      26      25
CQUAD4   10      6       10      11      27      26
CQUAD4   11      6       11      12      28      27
CQUAD4   12      6       12      13      29      28
CQUAD4   13      6       13      14      30      29
CQUAD4   14      6       14      15      31      30
CQUAD4   15      6       15      16      32      31
CQUAD4   16      6       17      18      34      33
CQUAD4   17      6       18      19      35      34
CQUAD4   18      6       19      20      36      35
CQUAD4   19      6       20      21      37      36
CQUAD4   20      6       21      22      38      37
$ ... 2668 like lines cut
$ Elements and Element Properties for region : COMPOSITO
$ Composite Property Reference Material: Laminado
$ Composite Material Description :
PCOMP    7
         3       .1      0.      YES     3       .1      45.     YES
         3       .1      -45.    YES     3       .1      90.     YES
         3       .1      90.     YES     3       .1      -45.    YES
         3       .1      45.     YES     3       .1      0.      YES
$ Pset: "COMPOSITO" will be imported as: "pcomp.7"
CQUAD4   1937    7       16      32      2212    1953
CQUAD4   1938    7       32      48      2213    2212
CQUAD4   1939    7       48      64      2214    2213
CQUAD4   1940    7       64      80      2215    2214
CQUAD4   1941    7       80      96      2216    2215
CQUAD4   1942    7       96      112     2217    2216
CQUAD4   1943    7       112     128     2218    2217
CQUAD4   1944    7       128     144     2219    2218
CQUAD4   1945    7       144     160     2220    2219
CQUAD4   1946    7       160     176     2221    2220
CQUAD4   1947    7       176     192     2222    2221
CQUAD4   1948    7       192     208     2223    2222
CQUAD4   1949    7       208     224     2224    2223
CQUAD4   1950    7       224     240     2225    2224
CQUAD4   1951    7       240     256     2226    2225
CQUAD4   1952    7       256     272     2227    2226
CQUAD4   1953    7       1953    2212    2229    1969
CQUAD4   1954    7       2212    2213    2230    2229
CQUAD4   1955    7       2213    2214    2231    2230
CQUAD4   1956    7       2214    2215    2232    2231
$ ... 748 like lines cut
$ Referenced Material Records
$ Material Record : Al7475
$ Description of Material : Date: 14-Jul-21           Time: 15:08:11
MAT1     1      68947.57         .33
$ Material Record : Al2024
$ Description of Material : Date: 14-Jul-21           Time: 15:08:11
MAT1*    2               72394.953                       .33
*
$ Material Record : Ply
$ Description of Material : Date: 11-Nov-21           Time: 14:03:05
MAT8     3       100000. 10000.  .34     5400.   5400.   3050.
$ Nodes of the Entire Model
GRID     1               0.      0.      0.
GRID*    2                               0.              0.
*       10.4800004959106
GRID*    3                               0.              0.
*       20.9600009918213
GRID*    4                               0.              0.
*        31.439998626709
GRID*    5                               0.              0.
*       41.9200019836426
GRID*    6                               0.              0.
*       52.3999977111816
GRID*    7                               0.              0.
*        62.879997253418
GRID*    8                               0.              0.
*       73.3600006103516
GRID*    9                               0.              0.
*       83.8400039672852
GRID*    10                              0.              0.
*       94.3199996948242
GRID*    11                              0.              0.
*       104.800010681152
GRID*    12                              0.              0.
*       115.280006408691
GRID*    13                              0.              0.
*       125.760009765625
GRID*    14                              0.              0.
*       136.240020751953
GRID*    15                              0.              0.
*       146.720016479492
GRID*    16                              0.              0.
*       157.199996948242
GRID*    17                             13.1000003814697 0.
*        0.
GRID*    18                             13.1000003814697 0.
*       10.4800004959106
GRID*    19                             13.1000003814697 0.
*       20.9600009918213
GRID*    20                             13.1000003814697 0.
*        31.439998626709
GRID*    21                             13.1000003814697 0.
*       41.9200019836426
$ ... 118 like lines cut
GRID     81              65.5    0.      0.
GRID*    82                              65.5            0.
*       10.4800004959106
GRID*    83                              65.5            0.
*       20.9600009918213
GRID*    84                              65.5            0.
*        31.439998626709
GRID*    85                              65.5            0.
*       41.9200019836426
GRID*    86                              65.5            0.
*       52.3999977111816
GRID*    87                              65.5            0.
*        62.879997253418
GRID*    88                              65.5            0.
*       73.3600006103516
GRID*    89                              65.5            0.
*       83.8400039672852
GRID*    90                              65.5            0.
*       94.3199996948242
GRID*    91                              65.5            0.
*       104.800010681152
GRID*    92                              65.5            0.
*       115.280006408691
GRID*    93                              65.5            0.
*       125.760009765625
GRID*    94                              65.5            0.
*       136.240020751953
GRID*    95                              65.5            0.
*       146.720016479492
GRID*    96                              65.5            0.
*       157.199996948242
GRID*    97                             78.6000061035156 0.
*        0.
GRID*    98                             78.6000061035156 0.
*       10.4800004959106
GRID*    99                             78.6000061035156 0.
*       20.9600009918213
GRID*    100                            78.6000061035156 0.
*        31.439998626709
GRID*    101                            78.6000061035156 0.
*       41.9200019836426
$ ... 118 like lines cut
GRID     161             131.    0.      0.
GRID*    162                             131.            0.
*       10.4800004959106
GRID*    163                             131.            0.
*       20.9600009918213
GRID*    164                             131.            0.
*        31.439998626709
GRID*    165                             131.            0.
*       41.9200019836426
GRID*    166                             131.            0.
*       52.3999977111816
GRID*    167                             131.            0.
*        62.879997253418
GRID*    168                             131.            0.
*       73.3600006103516
GRID*    169                             131.            0.
*       83.8400039672852
GRID*    170                             131.            0.
*       94.3199996948242
GRID*    171                             131.            0.
*       104.800010681152
GRID*    172                             131.            0.
*       115.280006408691
GRID*    173                             131.            0.
*       125.760009765625
GRID*    174                             131.            0.
*       136.240020751953
GRID*    175                             131.            0.
*       146.720016479492
GRID*    176                             131.            0.
*       157.199996948242
GRID*    177                            144.100006103516 0.
*        0.
GRID*    178                            144.100006103516 0.
*       10.4800004959106
GRID*    179                            144.100006103516 0.
*       20.9600009918213
GRID*    180                            144.100006103516 0.
*        31.439998626709
GRID*    181                            144.100006103516 0.
*       41.9200019836426
$ ... 118 like lines cut
GRID     241             196.5   0.      0.
GRID*    242                             196.5           0.
*       10.4800004959106
GRID*    243                             196.5           0.
*       20.9600009918213
GRID*    244                             196.5           0.
*        31.439998626709
GRID*    245                             196.5           0.
*       41.9200019836426
GRID*    246                             196.5           0.
*       52.3999977111816
GRID*    247                             196.5           0.
*        62.879997253418
GRID*    248                             196.5           0.
*       73.3600006103516
GRID*    249                             196.5           0.
*       83.8400039672852
GRID*    250                             196.5           0.
*       94.3199996948242
GRID*    251                             196.5           0.
*       104.800010681152
GRID*    252                             196.5           0.
*       115.280006408691
GRID*    253                             196.5           0.
*       125.760009765625
GRID*    254                             196.5           0.
*       136.240020751953
GRID*    255                             196.5           0.
*       146.720016479492
GRID*    256                             196.5           0.
*       157.199996948242
GRID*    257                            209.600006103516 0.
*        0.
GRID*    258                            209.600006103516 0.
*       10.4800004959106
GRID*    259                            209.600006103516 0.
*       20.9600009918213
GRID*    260                            209.600006103516 0.
*        31.439998626709
GRID*    261                            209.600006103516 0.
*       41.9200019836426
$ ... 118 like lines cut
GRID     337             262.    0.      0.
GRID*    338                             262.            0.
*       10.4800043106079
GRID*    339                             262.            0.
*       20.9600086212158
GRID*    340                             262.            0.
*       31.4399967193604
GRID*    341                             262.            0.
*       41.9200210571289
GRID*    342                             262.            0.
*       52.4000091552734
GRID*    343                             262.            0.
*       62.8799934387207
GRID*    344                             262.            0.
*       73.3600006103516
GRID*    345                             262.            0.
*       83.8399658203125
GRID*    346                             262.            0.
*       94.3199920654297
GRID*    347                             262.            0.
*       104.800025939941
GRID*    348                             262.            0.
*       115.279983520508
GRID*    349                             262.            0.
*       125.759986877441
GRID*    350                             262.            0.
*       136.239990234375
GRID*    351                             262.            0.
*       146.720016479492
GRID*    352                             262.            0.
*       157.199996948242
GRID*    353                            275.100006103516 0.
*        0.
GRID*    354                            275.100006103516 0.
*       10.4800033569336
GRID*    355                            275.100006103516 0.
*       20.9600067138672
GRID*    356                            275.100006103516 0.
*       31.4399967193604
GRID*    357                            275.100006103516 0.
*       41.9200134277344
$ ... 118 like lines cut
GRID     417             327.5   0.      0.
GRID*    418                             327.5           0.
*       10.4800024032593
GRID*    419                             327.5           0.
*       20.9600048065186
GRID*    420                             327.5           0.
*        31.439998626709
GRID*    421                             327.5           0.
*       41.9200096130371
GRID*    422                             327.5           0.
*       52.4000053405762
GRID*    423                             327.5           0.
*        62.879997253418
GRID*    424                             327.5           0.
*       73.3600006103516
GRID*    425                             327.5           0.
*       83.8399810791016
GRID*    426                             327.5           0.
*       94.3199996948242
GRID*    427                             327.5           0.
*       104.800018310547
GRID*    428                             327.5           0.
*       115.279991149902
GRID*    429                             327.5           0.
*        125.76000213623
GRID*    430                             327.5           0.
*       136.240005493164
GRID*    431                             327.5           0.
*       146.720016479492
GRID*    432                             327.5           0.
*       157.199996948242
GRID*    433                            340.600006103516 0.
*        0.
GRID*    434                            340.600006103516 0.
*       10.4800024032593
GRID*    435                            340.600006103516 0.
*       20.9600048065186
GRID*    436                            340.600006103516 0.
*        31.439998626709
GRID*    437                            340.600006103516 0.
*       41.9200096130371
$ ... 118 like lines cut
GRID     497             393.    0.      0.
GRID*    498                             393.            0.
*        10.480001449585
GRID*    499                             393.            0.
*       20.9600028991699
GRID*    500                             393.            0.
*        31.439998626709
GRID*    501                             393.            0.
*       41.9200057983398
GRID*    502                             393.            0.
*       52.3999977111816
GRID*    503                             393.            0.
*        62.879997253418
GRID*    504                             393.            0.
*       73.3600006103516
GRID*    505                             393.            0.
*       83.8399887084961
GRID*    506                             393.            0.
*       94.3199996948242
GRID*    507                             393.            0.
*       104.800010681152
GRID*    508                             393.            0.
*       115.279998779297
GRID*    509                             393.            0.
*       125.760009765625
GRID*    510                             393.            0.
*       136.240020751953
GRID*    511                             393.            0.
*       146.720016479492
GRID*    512                             393.            0.
*       157.199996948242
GRID*    513                            406.100006103516 0.
*        0.
GRID*    514                            406.100006103516 0.
*       10.4800004959106
GRID*    515                            406.100006103516 0.
*       20.9600009918213
GRID*    516                            406.100006103516 0.
*        31.439998626709
GRID*    517                            406.100006103516 0.
*       41.9200019836426
$ ... 118 like lines cut
GRID     593             458.5   0.      0.
GRID*    594                             458.5           0.
*       10.4800043106079
GRID*    595                             458.5           0.
*       20.9600086212158
GRID*    596                             458.5           0.
*       31.4399967193604
GRID*    597                             458.5           0.
*       41.9200210571289
GRID*    598                             458.5           0.
*       52.4000091552734
GRID*    599                             458.5           0.
*       62.8799934387207
GRID*    600                             458.5           0.
*       73.3600006103516
GRID*    601                             458.5           0.
*       83.8399658203125
GRID*    602                             458.5           0.
*       94.3199920654297
GRID*    603                             458.5           0.
*       104.800025939941
GRID*    604                             458.5           0.
*       115.279983520508
GRID*    605                             458.5           0.
*       125.759986877441
GRID*    606                             458.5           0.
*       136.239990234375
GRID*    607                             458.5           0.
*       146.720016479492
GRID*    608                             458.5           0.
*       157.199996948242
GRID*    609                            471.600006103516 0.
*        0.
GRID*    610                            471.600006103516 0.
*       10.4800043106079
GRID*    611                            471.600006103516 0.
*       20.9600086212158
GRID*    612                            471.600006103516 0.
*       31.4399967193604
GRID*    613                            471.600006103516 0.
*       41.9200210571289
$ ... 118 like lines cut
GRID     673             524.    0.      0.
GRID*    674                             524.            0.
*       10.4800033569336
GRID*    675                             524.            0.
*       20.9600067138672
GRID*    676                             524.            0.
*       31.4399967193604
GRID*    677                             524.            0.
*       41.9200134277344
GRID*    678                             524.            0.
*       52.4000091552734
GRID*    679                             524.            0.
*       62.8799934387207
GRID*    680                             524.            0.
*       73.3600006103516
GRID*    681                             524.            0.
*        83.839973449707
GRID*    682                             524.            0.
*       94.3199920654297
GRID*    683                             524.            0.
*       104.800018310547
GRID*    684                             524.            0.
*       115.279991149902
GRID*    685                             524.            0.
*        125.76000213623
GRID*    686                             524.            0.
*       136.240005493164
GRID*    687                             524.            0.
*       146.720016479492
GRID*    688                             524.            0.
*       157.199996948242
GRID*    689                            537.100036621094 0.
*        0.
GRID*    690                            537.100036621094 0.
*       10.4800024032593
GRID*    691                            537.100036621094 0.
*       20.9600048065186
GRID*    692                            537.100036621094 0.
*        31.439998626709
GRID*    693                            537.100036621094 0.
*       41.9200096130371
$ ... 118 like lines cut
GRID     753             589.5   0.      0.
GRID*    754                             589.5           0.
*        10.480001449585
GRID*    755                             589.5           0.
*       20.9600028991699
GRID*    756                             589.5           0.
*        31.439998626709
GRID*    757                             589.5           0.
*       41.9200057983398
GRID*    758                             589.5           0.
*       52.4000053405762
GRID*    759                             589.5           0.
*        62.879997253418
GRID*    760                             589.5           0.
*       73.3600006103516
GRID*    761                             589.5           0.
*       83.8399887084961
GRID*    762                             589.5           0.
*       94.3199996948242
GRID*    763                             589.5           0.
*       104.800010681152
GRID*    764                             589.5           0.
*       115.279998779297
GRID*    765                             589.5           0.
*       125.760009765625
GRID*    766                             589.5           0.
*       136.240020751953
GRID*    767                             589.5           0.
*       146.720016479492
GRID*    768                             589.5           0.
*       157.199996948242
GRID*    769                            602.599975585938 0.
*        0.
GRID*    770                            602.599975585938 0.
*        10.480001449585
GRID*    771                            602.599975585938 0.
*       20.9600028991699
GRID*    772                            602.599975585938 0.
*        31.439998626709
GRID*    773                            602.599975585938 0.
*       41.9200057983398
$ ... 2296 like lines cut
GRID     2009            0.      -98.25  73.6875
GRID*    2010                            0.              -98.25
*       83.5124588012695
GRID*    2011                            0.              -98.25
*       93.3374938964844
GRID*    2012                            0.              -98.25
*       103.162528991699
GRID*    2013                            0.              -98.25
*        112.98747253418
GRID*    2014                            0.              -98.25
*       122.812492370605
GRID*    2015                            0.              -98.25
*       132.637496948242
GRID*    2016                            0.              -98.25
*       142.462509155273
GRID*    2017                            0.              -98.25
*       152.287490844727
GRID*    2019                            0.             -117.89999389648
*       15.5890016555786
GRID*    2020                            0.             -117.89999389648
*       25.2830028533936
GRID*    2021                            0.             -117.90000152588
*       34.9769973754883
GRID*    2022                            0.             -117.89999389648
*       44.6710052490234
GRID*    2023                            0.             -117.89999389648
*       54.3650131225586
GRID*    2024                            0.             -117.89999389648
*       64.0589981079102
GRID*    2025                            0.             -117.89999389648
*       73.7529983520508
GRID*    2026                            0.             -117.89999389648
*       83.4469604492188
GRID*    2027                            0.             -117.89999389648
*       93.1409912109375
GRID*    2028                            0.             -117.89999389648
*       102.835029602051
GRID*    2029                            0.             -117.89999389648
*        112.52897644043
GRID*    2030                            0.             -117.89999389648
*       122.222991943359
$ ... 124 like lines cut
GRID     2097            0.      -196.5  147.375
GRID*    2099                            0.             -216.14999389648
*       19.8464984893799
GRID*    2100                            0.             -216.14999389648
*       28.8854961395264
GRID*    2101                            0.             -216.14999389648
*       37.9244995117188
GRID*    2102                            0.             -216.14999389648
*        46.963493347168
GRID*    2103                            0.             -216.14999389648
*        56.002513885498
GRID*    2104                            0.             -216.14999389648
*       65.0414962768555
GRID*    2105                            0.             -216.14999389648
*       74.0804977416992
GRID*    2106                            0.             -216.14999389648
*       83.1194610595703
GRID*    2107                            0.             -216.14999389648
*       92.1584930419922
GRID*    2108                            0.             -216.14999389648
*       101.197525024414
GRID*    2109                            0.             -216.14999389648
*       110.236480712891
GRID*    2110                            0.             -216.14999389648
*       119.275489807129
GRID*    2111                            0.             -216.14999389648
*       128.314498901367
GRID*    2112                            0.             -216.14999389648
*        137.353515625
GRID*    2113                            0.             -216.14999389648
*       146.392501831055
GRID*    2115                            0.             -235.79998779297
*        20.697998046875
GRID*    2116                            0.             -235.79998779297
*       29.6059951782227
GRID*    2117                            0.             -235.80000305176
*       38.5139999389648
GRID*    2118                            0.             -235.79998779297
*        47.421989440918
GRID*    2119                            0.             -235.79998779297
*       56.3300132751465
$ ... 406 like lines cut
GRID     2369            65.5    -196.5  147.375
GRID*    2370                           78.6000061035156 -196.5
*        147.375
GRID*    2371                           91.7000045776367 -196.5
*        147.375
GRID*    2372                           104.800003051758 -196.5
*        147.375
GRID*    2373                           117.900009155273 -196.5
*        147.375
GRID     2374            131.    -196.5  147.375
GRID*    2375                           144.100006103516 -196.5
*        147.375
GRID*    2376                           157.200012207031 -196.5
*        147.375
GRID*    2377                           170.300003051758 -196.5
*        147.375
GRID*    2378                           183.400009155273 -196.5
*        147.375
GRID     2379            196.5   -196.5  147.375
GRID*    2380                           209.600006103516 -196.5
*        147.375
GRID*    2382                           13.1000003814697-216.14999389648
*       146.392501831055
GRID*    2383                           26.2000007629395-216.14999389648
*       146.392501831055
GRID*    2384                           39.3000030517578-216.14999389648
*       146.392501831055
GRID*    2385                           52.4000015258789-216.14999389648
*       146.392501831055
GRID*    2386                            65.5           -216.14999389648
*       146.392501831055
GRID*    2387                           78.6000061035156-216.14999389648
*       146.392501831055
GRID*    2388                           91.7000045776367-216.14999389648
*       146.392501831055
GRID*    2389                           104.800003051758-216.14999389648
*       146.392501831055
GRID*    2390                           117.900009155273-216.14999389648
*       146.392501831055
GRID*    2391                            131.           -216.14999389648
*       146.392501831055
GRID*    2392                           144.100006103516-216.14999389648
*       146.392501831055
GRID*    2393                           157.200012207031-216.14999389648
*       146.392501831055
GRID*    2394                           170.300003051758-216.14999389648
*       146.392501831055
GRID*    2395                           183.400009155273-216.14999389648
*       146.392501831055
GRID*    2396                            196.5          -216.14999389648
*       146.392501831055
GRID*    2397                           209.600006103516-216.14999389648
*       146.392501831055
GRID*    2399                           13.1000003814697-235.79998779297
*       145.410003662109
GRID*    2400                           26.2000007629395-235.80000305176
*       145.410003662109
GRID*    2401                           39.3000030517578-235.79998779297
*        145.40998840332
$ ... 896 like lines cut
GRID     2946            262.    -196.5  147.375
GRID*    2947                           275.100006103516 -196.5
*        147.375
GRID*    2948                           288.200012207031 -196.5
*        147.375
GRID*    2949                           301.300018310547 -196.5
*        147.375
GRID*    2950                           314.400024414063 -196.5
*        147.375
GRID     2951            327.5   -196.5  147.375
GRID*    2952                           340.600006103516 -196.5
*        147.375
GRID*    2953                           353.700012207031 -196.5
*        147.375
GRID*    2954                           366.800018310547 -196.5
*        147.375
GRID*    2955                           379.900024414063 -196.5
*        147.375
GRID     2956            393.    -196.5  147.375
GRID*    2957                           406.100006103516 -196.5
*        147.375
GRID*    2958                           419.200012207031 -196.5
*        147.375
GRID*    2960                           222.700012207031-216.14999389648
*       146.392501831055
GRID*    2961                           235.800003051758-216.14999389648
*       146.392501831055
GRID*    2962                           248.900009155273-216.14999389648
*       146.392501831055
GRID*    2963                            262.           -216.14999389648
*       146.392501831055
GRID*    2964                           275.100006103516-216.14999389648
*       146.392501831055
GRID*    2965                           288.200012207031-216.14999389648
*       146.392501831055
GRID*    2966                           301.300018310547-216.14999389648
*       146.392501831055
GRID*    2967                           314.400024414063-216.14999389648
*       146.392501831055
GRID*    2968                            327.5          -216.14999389648
*       146.392501831055
GRID*    2969                           340.600006103516-216.14999389648
*       146.392501831055
GRID*    2970                           353.700012207031-216.14999389648
*       146.392501831055
GRID*    2971                           366.800018310547-216.14999389648
*       146.392501831055
GRID*    2972                           379.900024414063-216.14999389648
*       146.392501831055
GRID*    2973                            393.           -216.14999389648
*       146.392501831055
GRID*    2974                           406.100006103516-216.14999389648
*       146.392501831055
GRID*    2975                           419.200012207031-216.14999389648
*       146.392501831055
GRID*    2977                           222.700012207031-235.80000305176
*       145.410003662109
GRID*    2978                           235.800003051758-235.80000305176
*       145.410003662109
$ ... 1328 like lines cut
GRID     3795            458.5   -196.5  147.375
GRID*    3796                           471.600006103516 -196.5
*        147.375
GRID*    3797                           484.700012207031 -196.5
*        147.375
GRID*    3798                           497.800018310547 -196.5
*        147.375
GRID*    3799                           510.900024414063 -196.5
*        147.375
GRID     3800            524.    -196.5  147.375
GRID*    3801                           537.100036621094 -196.5
*        147.375
GRID*    3802                           550.200012207031 -196.5
*        147.375
GRID*    3803                           563.300048828125 -196.5
*        147.375
GRID*    3804                           576.400024414063 -196.5
*        147.375
GRID*    3805                           589.500061035156 -196.5
*        147.375
GRID*    3806                           602.600036621094 -196.5
*        147.375
GRID*    3807                           615.700073242188 -196.5
*        147.375
GRID*    3810                           432.300018310547-216.14999389648
*       146.392501831055
GRID*    3811                           445.400024414063-216.14999389648
*       146.392501831055
GRID*    3812                            458.5          -216.14999389648
*       146.392501831055
GRID*    3813                           471.600006103516-216.14999389648
*       146.392501831055
GRID*    3814                           484.700012207031-216.14999389648
*       146.392501831055
GRID*    3815                           497.800018310547-216.14999389648
*       146.392501831055
GRID*    3816                           510.900024414063-216.14999389648
*       146.392501831055
GRID*    3817                            524.           -216.14999389648
*       146.392501831055
GRID*    3818                           537.100036621094-216.14999389648
*       146.392501831055
GRID*    3819                           550.200012207031-216.14999389648
*       146.392501831055
GRID*    3820                           563.300048828125-216.14999389648
*       146.392501831055
GRID*    3821                           576.400024414063-216.14999389648
*       146.392501831055
GRID*    3822                           589.500061035156-216.14999389648
*       146.392501831055
$ ... 124 like lines cut
$ Loads for Load Case : Default
SPCADD   2       1
LOAD     2       1.      1.      1       1.      3       1.      4
         1.      5
$ Displacement Constraints of Load Set : ENGASTE
SPC1     1       123456  1       THRU    16
SPC1     1       123456  257     272     529     544
SPC1     1       123456  801     THRU    816
$ Nodal Forces of Load Set : F1
FORCE*   1               817             0               47658.629
*        0.              0.              1.
FORCE*   1               832             0               47658.629
*        0.              0.              1.
$ Nodal Forces of Load Set : F2
FORCE    3       1617    0       15886.2 0.      0.      1.
FORCE    3       1632    0       15886.2 0.      0.      1.
$ Nodal Forces of Load Set : F3
FORCE    4       817     0       6354.48 0.      -1.     0.
FORCE    4       1617    0       6354.48 0.      -1.     0.
$ Nodal Forces of Load Set : F4
FORCE*   5               832             0               9531.7197
*        0.              1.              0.
FORCE*   5               1632            0               9531.7197
*        0.              1.              0.
$ Referenced Coordinate Frames
ENDDATA 6d8cf0d8
