$ MSC.Nastran input file created on November  24, 2021 at 20:26:27 by
$ Patran 2021.1  (Student Edition)
$ Direct Text Input for Nastran System Cell Section
$ Direct Text Input for File Management Section
$ Direct Text Input for Executive Control
$ Linear Static Analysis, Database
SOL 101
CEND
$ Direct Text Input for Global Case Control Data
TITLE = MSC.Nastran job created on 24-Nov-21 at 20:26:22
ECHO = NONE
SUBCASE 1
   SUBTITLE=Default
   SPC = 2
   LOAD = 2
   DISPLACEMENT(SORT1,REAL)=ALL
   SPCFORCES(SORT1,REAL)=ALL
   OLOAD(SORT1,REAL)=ALL
   STRAIN(SORT1,REAL,VONMISES,STRCUR,BILIN)=ALL
   STRESS(SORT1,REAL,VONMISES,BILIN)=ALL
$ Direct Text Input for this Subcase
BEGIN BULK
$ Direct Text Input for Bulk Data
MDLPRM   HDF5    0
PARAM   PRTMAXIM YES
$ Elements and Element Properties for region : LONGARINAS_SUPERIORES
PBARL    1       1               T
         15.72   10.48   1.048   1.048
$ Pset: "LONGARINAS_SUPERIORES" will be imported as: "pbarl.1"
CBAR     5121    1       16      2489    0.      0.      1.
                         0.      0.      -3.28   0.      0.      -3.28
CBAR     5122    1       2489    2505    0.      0.      1.
                         0.      0.      -3.28   0.      0.      -3.28
CBAR     5123    1       2505    2521    0.      0.      1.
                         0.      0.      -3.28   0.      0.      -3.28
CBAR     5124    1       2521    2537    0.      0.      1.
                         0.      0.      -3.28   0.      0.      -3.28
CBAR     5125    1       2537    2553    0.      0.      1.
                         0.      0.      -3.28   0.      0.      -3.28
CBAR     5126    1       2553    2569    0.      0.      1.
                         0.      0.      -3.28   0.      0.      -3.28
CBAR     5127    1       2569    2585    0.      0.      1.
                         0.      0.      -3.28   0.      0.      -3.28
CBAR     5128    1       2585    2601    0.      0.      1.
                         0.      0.      -3.28   0.      0.      -3.28
CBAR     5129    1       2601    2617    0.      0.      1.
                         0.      0.      -3.28   0.      0.      -3.28
CBAR     5130    1       2617    2633    0.      0.      1.
                         0.      0.      -3.28   0.      0.      -3.28
CBAR     5131    1       2633    2649    0.      0.      1.
                         0.      0.      -3.28   0.      0.      -3.28
CBAR     5132    1       2649    2665    0.      0.      1.
                         0.      0.      -3.28   0.      0.      -3.28
CBAR     5133    1       2665    2681    0.      0.      1.
                         0.      0.      -3.28   0.      0.      -3.28
CBAR     5134    1       2681    2697    0.      0.      1.
                         0.      0.      -3.28   0.      0.      -3.28
CBAR     5135    1       2697    2713    0.      0.      1.
                         0.      0.      -3.28   0.      0.      -3.28
CBAR     5136    1       2713    2729    0.      0.      1.
                         0.      0.      -3.28   0.      0.      -3.28
CBAR     5137    1       2729    2745    0.      0.      1.
                         0.      0.      -3.28   0.      0.      -3.28
CBAR     5138    1       2745    2761    0.      0.      1.
                         0.      0.      -3.28   0.      0.      -3.28
CBAR     5139    1       2761    2777    0.      0.      1.
                         0.      0.      -3.28   0.      0.      -3.28
CBAR     5140    1       2777    1024    0.      0.      1.
                         0.      0.      -3.28   0.      0.      -3.28
$ ... 40 like lines cut
$ Elements and Element Properties for region : LONGARINAS_INFERIORES
PBARL    2       1               T
         15.72   10.48   1.048   1.048
$ Pset: "LONGARINAS_INFERIORES" will be imported as: "pbarl.2"
CBAR     5161    2       1       2038    0.      0.      -1.
                         0.      0.      3.28    0.      0.      3.28
CBAR     5162    2       2038    2059    0.      0.      -1.
                         0.      0.      3.28    0.      0.      3.28
CBAR     5163    2       2059    2080    0.      0.      -1.
                         0.      0.      3.28    0.      0.      3.28
CBAR     5164    2       2080    2101    0.      0.      -1.
                         0.      0.      3.28    0.      0.      3.28
CBAR     5165    2       2101    2122    0.      0.      -1.
                         0.      0.      3.28    0.      0.      3.28
CBAR     5166    2       2122    2143    0.      0.      -1.
                         0.      0.      3.28    0.      0.      3.28
CBAR     5167    2       2143    2164    0.      0.      -1.
                         0.      0.      3.28    0.      0.      3.28
CBAR     5168    2       2164    2185    0.      0.      -1.
                         0.      0.      3.28    0.      0.      3.28
CBAR     5169    2       2185    2206    0.      0.      -1.
                         0.      0.      3.28    0.      0.      3.28
CBAR     5170    2       2206    2227    0.      0.      -1.
                         0.      0.      3.28    0.      0.      3.28
CBAR     5171    2       2227    2248    0.      0.      -1.
                         0.      0.      3.28    0.      0.      3.28
CBAR     5172    2       2248    2269    0.      0.      -1.
                         0.      0.      3.28    0.      0.      3.28
CBAR     5173    2       2269    2290    0.      0.      -1.
                         0.      0.      3.28    0.      0.      3.28
CBAR     5174    2       2290    2311    0.      0.      -1.
                         0.      0.      3.28    0.      0.      3.28
CBAR     5175    2       2311    2332    0.      0.      -1.
                         0.      0.      3.28    0.      0.      3.28
CBAR     5176    2       2332    2353    0.      0.      -1.
                         0.      0.      3.28    0.      0.      3.28
CBAR     5177    2       2353    2374    0.      0.      -1.
                         0.      0.      3.28    0.      0.      3.28
CBAR     5178    2       2374    2395    0.      0.      -1.
                         0.      0.      3.28    0.      0.      3.28
CBAR     5179    2       2395    2416    0.      0.      -1.
                         0.      0.      3.28    0.      0.      3.28
CBAR     5180    2       2416    1009    0.      0.      -1.
                         0.      0.      3.28    0.      0.      3.28
$ ... 40 like lines cut
$ Elements and Element Properties for region : NERVURAS_SUPERIORES
PBARL    3       1               T
         15.72   10.48   1.048   1.048
$ Pset: "NERVURAS_SUPERIORES" will be imported as: "pbarl.3"
CBAR     4881    3       16      32      0.      0.      1.
                         0.      0.      -3.28   0.      0.      -3.28
CBAR     4882    3       32      48      0.      0.      1.
                         0.      0.      -3.28   0.      0.      -3.28
CBAR     4883    3       48      64      0.      0.      1.
                         0.      0.      -3.28   0.      0.      -3.28
CBAR     4884    3       64      80      0.      0.      1.
                         0.      0.      -3.28   0.      0.      -3.28
CBAR     4885    3       80      96      0.      0.      1.
                         0.      0.      -3.28   0.      0.      -3.28
CBAR     4886    3       96      112     0.      0.      1.
                         0.      0.      -3.28   0.      0.      -3.28
CBAR     4887    3       112     128     0.      0.      1.
                         0.      0.      -3.28   0.      0.      -3.28
CBAR     4888    3       128     144     0.      0.      1.
                         0.      0.      -3.28   0.      0.      -3.28
CBAR     4889    3       144     160     0.      0.      1.
                         0.      0.      -3.28   0.      0.      -3.28
CBAR     4890    3       160     176     0.      0.      1.
                         0.      0.      -3.28   0.      0.      -3.28
CBAR     4891    3       176     192     0.      0.      1.
                         0.      0.      -3.28   0.      0.      -3.28
CBAR     4892    3       192     208     0.      0.      1.
                         0.      0.      -3.28   0.      0.      -3.28
CBAR     4893    3       208     224     0.      0.      1.
                         0.      0.      -3.28   0.      0.      -3.28
CBAR     4894    3       224     240     0.      0.      1.
                         0.      0.      -3.28   0.      0.      -3.28
CBAR     4895    3       240     256     0.      0.      1.
                         0.      0.      -3.28   0.      0.      -3.28
CBAR     4896    3       256     272     0.      0.      1.
                         0.      0.      -3.28   0.      0.      -3.28
CBAR     4897    3       272     288     0.      0.      1.
                         0.      0.      -3.28   0.      0.      -3.28
CBAR     4898    3       288     304     0.      0.      1.
                         0.      0.      -3.28   0.      0.      -3.28
CBAR     4899    3       304     320     0.      0.      1.
                         0.      0.      -3.28   0.      0.      -3.28
CBAR     4900    3       320     336     0.      0.      1.
                         0.      0.      -3.28   0.      0.      -3.28
$ ... 200 like lines cut
$ Elements and Element Properties for region : NERVURAS_INFERIORES
PBARL    4       1               T
         15.72   10.48   1.048   1.048
$ Pset: "NERVURAS_INFERIORES" will be imported as: "pbarl.4"
CBAR     5001    4       1       17      0.      0.      -1.
                         0.      0.      3.28    0.      0.      3.28
CBAR     5002    4       17      33      0.      0.      -1.
                         0.      0.      3.28    0.      0.      3.28
CBAR     5003    4       33      49      0.      0.      -1.
                         0.      0.      3.28    0.      0.      3.28
CBAR     5004    4       49      65      0.      0.      -1.
                         0.      0.      3.28    0.      0.      3.28
CBAR     5005    4       65      81      0.      0.      -1.
                         0.      0.      3.28    0.      0.      3.28
CBAR     5006    4       81      97      0.      0.      -1.
                         0.      0.      3.28    0.      0.      3.28
CBAR     5007    4       97      113     0.      0.      -1.
                         0.      0.      3.28    0.      0.      3.28
CBAR     5008    4       113     129     0.      0.      -1.
                         0.      0.      3.28    0.      0.      3.28
CBAR     5009    4       129     145     0.      0.      -1.
                         0.      0.      3.28    0.      0.      3.28
CBAR     5010    4       145     161     0.      0.      -1.
                         0.      0.      3.28    0.      0.      3.28
CBAR     5011    4       161     177     0.      0.      -1.
                         0.      0.      3.28    0.      0.      3.28
CBAR     5012    4       177     193     0.      0.      -1.
                         0.      0.      3.28    0.      0.      3.28
CBAR     5013    4       193     209     0.      0.      -1.
                         0.      0.      3.28    0.      0.      3.28
CBAR     5014    4       209     225     0.      0.      -1.
                         0.      0.      3.28    0.      0.      3.28
CBAR     5015    4       225     241     0.      0.      -1.
                         0.      0.      3.28    0.      0.      3.28
CBAR     5016    4       241     257     0.      0.      -1.
                         0.      0.      3.28    0.      0.      3.28
CBAR     5017    4       257     273     0.      0.      -1.
                         0.      0.      3.28    0.      0.      3.28
CBAR     5018    4       273     289     0.      0.      -1.
                         0.      0.      3.28    0.      0.      3.28
CBAR     5019    4       289     305     0.      0.      -1.
                         0.      0.      3.28    0.      0.      3.28
CBAR     5020    4       305     321     0.      0.      -1.
                         0.      0.      3.28    0.      0.      3.28
$ ... 200 like lines cut
$ Elements and Element Properties for region : STRINGERS_INFERIORES
PBARL    5       1               HAT
*        15.72           1.048           15.72           5.2399998
*
$ Pset: "STRINGERS_INFERIORES" will be imported as: "pbarl.5"
CBAR     4801    5       321     2058    0.      0.      1.
*                                        0.              0.
*        9.0600004       0.              0.              9.0600004
CBAR     4802    5       2058    2079    0.      0.      1.
*                                        0.              0.
*        9.0600004       0.              0.              9.0600004
CBAR     4803    5       2079    2100    0.      0.      1.
*                                        0.              0.
*        9.0600004       0.              0.              9.0600004
CBAR     4804    5       2100    2121    0.      0.      1.
*                                        0.              0.
*        9.0600004       0.              0.              9.0600004
CBAR     4805    5       2121    2142    0.      0.      1.
*                                        0.              0.
*        9.0600004       0.              0.              9.0600004
CBAR     4806    5       2142    2163    0.      0.      1.
*                                        0.              0.
*        9.0600004       0.              0.              9.0600004
CBAR     4807    5       2163    2184    0.      0.      1.
*                                        0.              0.
*        9.0600004       0.              0.              9.0600004
CBAR     4808    5       2184    2205    0.      0.      1.
*                                        0.              0.
*        9.0600004       0.              0.              9.0600004
CBAR     4809    5       2205    2226    0.      0.      1.
*                                        0.              0.
*        9.0600004       0.              0.              9.0600004
CBAR     4810    5       2226    2247    0.      0.      1.
*                                        0.              0.
*        9.0600004       0.              0.              9.0600004
CBAR     4811    5       2247    2268    0.      0.      1.
*                                        0.              0.
*        9.0600004       0.              0.              9.0600004
CBAR     4812    5       2268    2289    0.      0.      1.
*                                        0.              0.
*        9.0600004       0.              0.              9.0600004
CBAR     4813    5       2289    2310    0.      0.      1.
*                                        0.              0.
*        9.0600004       0.              0.              9.0600004
CBAR     4814    5       2310    2331    0.      0.      1.
*                                        0.              0.
*        9.0600004       0.              0.              9.0600004
CBAR     4815    5       2331    2352    0.      0.      1.
*                                        0.              0.
*        9.0600004       0.              0.              9.0600004
CBAR     4816    5       2352    2373    0.      0.      1.
*                                        0.              0.
*        9.0600004       0.              0.              9.0600004
CBAR     4817    5       2373    2394    0.      0.      1.
*                                        0.              0.
*        9.0600004       0.              0.              9.0600004
CBAR     4818    5       2394    2415    0.      0.      1.
*                                        0.              0.
*        9.0600004       0.              0.              9.0600004
CBAR     4819    5       2415    2436    0.      0.      1.
*                                        0.              0.
*        9.0600004       0.              0.              9.0600004
CBAR     4820    5       2436    1329    0.      0.      1.
*                                        0.              0.
*        9.0600004       0.              0.              9.0600004
$ ... 60 like lines cut
$ Elements and Element Properties for region : REVESTIMENTO
PSHELL   6       2       1.572   2               2
$ Pset: "REVESTIMENTO" will be imported as: "pshell.6"
CQUAD4   1       6       1       2       18      17
CQUAD4   2       6       2       3       19      18
CQUAD4   3       6       3       4       20      19
CQUAD4   4       6       4       5       21      20
CQUAD4   5       6       5       6       22      21
CQUAD4   6       6       6       7       23      22
CQUAD4   7       6       7       8       24      23
CQUAD4   8       6       8       9       25      24
CQUAD4   9       6       9       10      26      25
CQUAD4   10      6       10      11      27      26
CQUAD4   11      6       11      12      28      27
CQUAD4   12      6       12      13      29      28
CQUAD4   13      6       13      14      30      29
CQUAD4   14      6       14      15      31      30
CQUAD4   15      6       15      16      32      31
CQUAD4   16      6       17      18      34      33
CQUAD4   17      6       18      19      35      34
CQUAD4   18      6       19      20      36      35
CQUAD4   19      6       20      21      37      36
CQUAD4   20      6       21      22      38      37
$ ... 3580 like lines cut
$ Elements and Element Properties for region : COMPOSITO
$ Composite Property Reference Material: Laminado
$ Composite Material Description :
PCOMP    7
         3       .1      0.      YES     3       .1      45.     YES
         3       .1      -45.    YES     3       .1      90.     YES
         3       .1      90.     YES     3       .1      -45.    YES
         3       .1      45.     YES     3       .1      0.      YES
$ Pset: "COMPOSITO" will be imported as: "pcomp.7"
CQUAD4   2501    7       16      32      2816    2489
CQUAD4   2502    7       32      48      2817    2816
CQUAD4   2503    7       48      64      2818    2817
CQUAD4   2504    7       64      80      2819    2818
CQUAD4   2505    7       80      96      2820    2819
CQUAD4   2506    7       96      112     2821    2820
CQUAD4   2507    7       112     128     2822    2821
CQUAD4   2508    7       128     144     2823    2822
CQUAD4   2509    7       144     160     2824    2823
CQUAD4   2510    7       160     176     2825    2824
CQUAD4   2511    7       176     192     2826    2825
CQUAD4   2512    7       192     208     2827    2826
CQUAD4   2513    7       208     224     2828    2827
CQUAD4   2514    7       224     240     2829    2828
CQUAD4   2515    7       240     256     2830    2829
CQUAD4   2516    7       256     272     2831    2830
CQUAD4   2517    7       272     288     2832    2831
CQUAD4   2518    7       288     304     2833    2832
CQUAD4   2519    7       304     320     2834    2833
CQUAD4   2520    7       320     336     2835    2834
$ ... 1180 like lines cut
$ Referenced Material Records
$ Material Record : Al7475
$ Description of Material : Date: 14-Jul-21           Time: 15:08:11
MAT1     1      68947.57         .33
$ Material Record : Al2024
$ Description of Material : Date: 14-Jul-21           Time: 15:08:11
MAT1*    2               72394.953                       .33
*
$ Material Record : Ply
$ Description of Material : Date: 11-Nov-21           Time: 14:03:05
MAT8     3       100000. 10000.  .34     5400.   5400.   3050.
$ Nodes of the Entire Model
GRID     1               0.      0.      0.
GRID*    2                               0.              0.
*       10.4800004959106
GRID*    3                               0.              0.
*       20.9600009918213
GRID*    4                               0.              0.
*        31.439998626709
GRID*    5                               0.              0.
*       41.9200019836426
GRID*    6                               0.              0.
*       52.3999977111816
GRID*    7                               0.              0.
*        62.879997253418
GRID*    8                               0.              0.
*       73.3600006103516
GRID*    9                               0.              0.
*       83.8400039672852
GRID*    10                              0.              0.
*       94.3199996948242
GRID*    11                              0.              0.
*       104.800010681152
GRID*    12                              0.              0.
*       115.280006408691
GRID*    13                              0.              0.
*       125.760009765625
GRID*    14                              0.              0.
*       136.240020751953
GRID*    15                              0.              0.
*       146.720016479492
GRID*    16                              0.              0.
*       157.199996948242
GRID*    17                             10.4800004959106 0.
*        0.
GRID*    18                             10.4800004959106 0.
*       10.4800004959106
GRID*    19                             10.4800004959106 0.
*       20.9600009918213
GRID*    20                             10.4800004959106 0.
*        31.439998626709
GRID*    21                             10.4800004959106 0.
*       41.9200019836426
$ ... 758 like lines cut
GRID     417             262.    0.      0.
GRID*    418                             262.            0.
*       10.4800043106079
GRID*    419                             262.            0.
*       20.9600086212158
GRID*    420                             262.            0.
*       31.4399967193604
GRID*    421                             262.            0.
*       41.9200210571289
GRID*    422                             262.            0.
*       52.4000091552734
GRID*    423                             262.            0.
*       62.8799934387207
GRID*    424                             262.            0.
*       73.3600006103516
GRID*    425                             262.            0.
*       83.8399658203125
GRID*    426                             262.            0.
*       94.3199920654297
GRID*    427                             262.            0.
*       104.800025939941
GRID*    428                             262.            0.
*       115.279983520508
GRID*    429                             262.            0.
*       125.759986877441
GRID*    430                             262.            0.
*       136.239990234375
GRID*    431                             262.            0.
*       146.720016479492
GRID*    432                             262.            0.
*       157.199996948242
GRID*    433                            272.480010986328 0.
*        0.
GRID*    434                            272.480010986328 0.
*       10.4800033569336
GRID*    435                            272.480010986328 0.
*       20.9600067138672
GRID*    436                            272.480010986328 0.
*       31.4399967193604
GRID*    437                            272.480010986328 0.
*       41.9200134277344
$ ... 758 like lines cut
GRID     833             524.    0.      0.
GRID*    834                             524.            0.
*       10.4800033569336
GRID*    835                             524.            0.
*       20.9600067138672
GRID*    836                             524.            0.
*       31.4399967193604
GRID*    837                             524.            0.
*       41.9200134277344
GRID*    838                             524.            0.
*       52.4000091552734
GRID*    839                             524.            0.
*       62.8799934387207
GRID*    840                             524.            0.
*       73.3600006103516
GRID*    841                             524.            0.
*        83.839973449707
GRID*    842                             524.            0.
*       94.3199920654297
GRID*    843                             524.            0.
*       104.800018310547
GRID*    844                             524.            0.
*       115.279991149902
GRID*    845                             524.            0.
*        125.76000213623
GRID*    846                             524.            0.
*       136.240005493164
GRID*    847                             524.            0.
*       146.720016479492
GRID*    848                             524.            0.
*       157.199996948242
GRID*    849                            534.480041503906 0.
*        0.
GRID*    850                            534.480041503906 0.
*       10.4800024032593
GRID*    851                            534.480041503906 0.
*       20.9600048065186
GRID*    852                            534.480041503906 0.
*        31.439998626709
GRID*    853                            534.480041503906 0.
*       41.9200096130371
$ ... 7962 like lines cut
$ Loads for Load Case : Default
SPCADD   2       1
LOAD     2       1.      1.      1       1.      3       1.      4
         1.      5
$ Displacement Constraints of Load Set : ENGASTE
SPC1     1       123456  1       THRU    16
SPC1     1       123456  321     336     657     672
SPC1     1       123456  993     THRU    1008
$ Nodal Forces of Load Set : F1
FORCE*   1               1009            0               47658.629
*        0.              0.              1.
FORCE*   1               1024            0               47658.629
*        0.              0.              1.
$ Nodal Forces of Load Set : F2
FORCE    3       2001    0       15886.2 0.      0.      1.
FORCE    3       2016    0       15886.2 0.      0.      1.
$ Nodal Forces of Load Set : F3
FORCE    4       1009    0       6354.48 0.      -1.     0.
FORCE    4       2001    0       6354.48 0.      -1.     0.
$ Nodal Forces of Load Set : F4
FORCE*   5               1024            0               9531.7197
*        0.              1.              0.
FORCE*   5               2016            0               9531.7197
*        0.              1.              0.
$ Referenced Coordinate Frames
ENDDATA a1d2665b
