$ MSC.Nastran input file created on December  18, 2021 at 10:12:16 by
$ Patran 2021.1  (Student Edition)
$ Direct Text Input for Nastran System Cell Section
$ Direct Text Input for File Management Section
$ Direct Text Input for Executive Control
$ Linear Static Analysis, Database
SOL 101
CEND
$ Direct Text Input for Global Case Control Data
TITLE = MSC.Nastran job created on 18-Dec-21 at 10:12:11
ECHO = NONE
SUBCASE 1
   SUBTITLE=Default
   SPC = 2
   LOAD = 2
   DISPLACEMENT(SORT1,REAL)=ALL
   SPCFORCES(SORT1,REAL)=ALL
   OLOAD(SORT1,REAL)=ALL
   STRAIN(SORT1,REAL,VONMISES,STRCUR,BILIN)=ALL
   STRESS(SORT1,REAL,VONMISES,BILIN)=ALL
$ Direct Text Input for this Subcase
BEGIN BULK
$ Direct Text Input for Bulk Data
MDLPRM   HDF5    0
PARAM   PRTMAXIM YES
$ Elements and Element Properties for region : LONGARINAS_SUPERIORES
PBARL    1       1               T
         15.72   10.48   1.048   1.048
$ Pset: "LONGARINAS_SUPERIORES" will be imported as: "pbarl.1"
CBAR     12289   1       23      5689    0.      0.      1.
                         0.      0.      -3.28   0.      0.      -3.28
CBAR     12290   1       5689    5712    0.      0.      1.
                         0.      0.      -3.28   0.      0.      -3.28
CBAR     12291   1       5712    5735    0.      0.      1.
                         0.      0.      -3.28   0.      0.      -3.28
CBAR     12292   1       5735    5758    0.      0.      1.
                         0.      0.      -3.28   0.      0.      -3.28
CBAR     12293   1       5758    5781    0.      0.      1.
                         0.      0.      -3.28   0.      0.      -3.28
CBAR     12294   1       5781    5804    0.      0.      1.
                         0.      0.      -3.28   0.      0.      -3.28
CBAR     12295   1       5804    5827    0.      0.      1.
                         0.      0.      -3.28   0.      0.      -3.28
CBAR     12296   1       5827    5850    0.      0.      1.
                         0.      0.      -3.28   0.      0.      -3.28
CBAR     12297   1       5850    5873    0.      0.      1.
                         0.      0.      -3.28   0.      0.      -3.28
CBAR     12298   1       5873    5896    0.      0.      1.
                         0.      0.      -3.28   0.      0.      -3.28
CBAR     12299   1       5896    5919    0.      0.      1.
                         0.      0.      -3.28   0.      0.      -3.28
CBAR     12300   1       5919    5942    0.      0.      1.
                         0.      0.      -3.28   0.      0.      -3.28
CBAR     12301   1       5942    5965    0.      0.      1.
                         0.      0.      -3.28   0.      0.      -3.28
CBAR     12302   1       5965    5988    0.      0.      1.
                         0.      0.      -3.28   0.      0.      -3.28
CBAR     12303   1       5988    6011    0.      0.      1.
                         0.      0.      -3.28   0.      0.      -3.28
CBAR     12304   1       6011    6034    0.      0.      1.
                         0.      0.      -3.28   0.      0.      -3.28
CBAR     12305   1       6034    6057    0.      0.      1.
                         0.      0.      -3.28   0.      0.      -3.28
CBAR     12306   1       6057    6080    0.      0.      1.
                         0.      0.      -3.28   0.      0.      -3.28
CBAR     12307   1       6080    6103    0.      0.      1.
                         0.      0.      -3.28   0.      0.      -3.28
CBAR     12308   1       6103    6126    0.      0.      1.
                         0.      0.      -3.28   0.      0.      -3.28
$ ... 88 like lines cut
$ Elements and Element Properties for region : LONGARINAS_INFERIORES
PBARL    2       1               T
         15.72   10.48   1.048   1.048
$ Pset: "LONGARINAS_INFERIORES" will be imported as: "pbarl.2"
CBAR     12353   2       1       4588    0.      0.      -1.
                         0.      0.      3.28    0.      0.      3.28
CBAR     12354   2       4588    4621    0.      0.      -1.
                         0.      0.      3.28    0.      0.      3.28
CBAR     12355   2       4621    4654    0.      0.      -1.
                         0.      0.      3.28    0.      0.      3.28
CBAR     12356   2       4654    4687    0.      0.      -1.
                         0.      0.      3.28    0.      0.      3.28
CBAR     12357   2       4687    4720    0.      0.      -1.
                         0.      0.      3.28    0.      0.      3.28
CBAR     12358   2       4720    4753    0.      0.      -1.
                         0.      0.      3.28    0.      0.      3.28
CBAR     12359   2       4753    4786    0.      0.      -1.
                         0.      0.      3.28    0.      0.      3.28
CBAR     12360   2       4786    4819    0.      0.      -1.
                         0.      0.      3.28    0.      0.      3.28
CBAR     12361   2       4819    4852    0.      0.      -1.
                         0.      0.      3.28    0.      0.      3.28
CBAR     12362   2       4852    4885    0.      0.      -1.
                         0.      0.      3.28    0.      0.      3.28
CBAR     12363   2       4885    4918    0.      0.      -1.
                         0.      0.      3.28    0.      0.      3.28
CBAR     12364   2       4918    4951    0.      0.      -1.
                         0.      0.      3.28    0.      0.      3.28
CBAR     12365   2       4951    4984    0.      0.      -1.
                         0.      0.      3.28    0.      0.      3.28
CBAR     12366   2       4984    5017    0.      0.      -1.
                         0.      0.      3.28    0.      0.      3.28
CBAR     12367   2       5017    5050    0.      0.      -1.
                         0.      0.      3.28    0.      0.      3.28
CBAR     12368   2       5050    5083    0.      0.      -1.
                         0.      0.      3.28    0.      0.      3.28
CBAR     12369   2       5083    5116    0.      0.      -1.
                         0.      0.      3.28    0.      0.      3.28
CBAR     12370   2       5116    5149    0.      0.      -1.
                         0.      0.      3.28    0.      0.      3.28
CBAR     12371   2       5149    5182    0.      0.      -1.
                         0.      0.      3.28    0.      0.      3.28
CBAR     12372   2       5182    5215    0.      0.      -1.
                         0.      0.      3.28    0.      0.      3.28
$ ... 88 like lines cut
$ Elements and Element Properties for region : NERVURAS_SUPERIORES
PBARL    3       1               T
         15.72   10.48   1.048   1.048
$ Pset: "NERVURAS_SUPERIORES" will be imported as: "pbarl.3"
CBAR     11905   3       23      46      0.      0.      1.
                         0.      0.      -3.28   0.      0.      -3.28
CBAR     11906   3       46      69      0.      0.      1.
                         0.      0.      -3.28   0.      0.      -3.28
CBAR     11907   3       69      92      0.      0.      1.
                         0.      0.      -3.28   0.      0.      -3.28
CBAR     11908   3       92      115     0.      0.      1.
                         0.      0.      -3.28   0.      0.      -3.28
CBAR     11909   3       115     138     0.      0.      1.
                         0.      0.      -3.28   0.      0.      -3.28
CBAR     11910   3       138     161     0.      0.      1.
                         0.      0.      -3.28   0.      0.      -3.28
CBAR     11911   3       161     184     0.      0.      1.
                         0.      0.      -3.28   0.      0.      -3.28
CBAR     11912   3       184     207     0.      0.      1.
                         0.      0.      -3.28   0.      0.      -3.28
CBAR     11913   3       207     230     0.      0.      1.
                         0.      0.      -3.28   0.      0.      -3.28
CBAR     11914   3       230     253     0.      0.      1.
                         0.      0.      -3.28   0.      0.      -3.28
CBAR     11915   3       253     276     0.      0.      1.
                         0.      0.      -3.28   0.      0.      -3.28
CBAR     11916   3       276     299     0.      0.      1.
                         0.      0.      -3.28   0.      0.      -3.28
CBAR     11917   3       299     322     0.      0.      1.
                         0.      0.      -3.28   0.      0.      -3.28
CBAR     11918   3       322     345     0.      0.      1.
                         0.      0.      -3.28   0.      0.      -3.28
CBAR     11919   3       345     368     0.      0.      1.
                         0.      0.      -3.28   0.      0.      -3.28
CBAR     11920   3       368     391     0.      0.      1.
                         0.      0.      -3.28   0.      0.      -3.28
CBAR     11921   3       391     414     0.      0.      1.
                         0.      0.      -3.28   0.      0.      -3.28
CBAR     11922   3       414     437     0.      0.      1.
                         0.      0.      -3.28   0.      0.      -3.28
CBAR     11923   3       437     460     0.      0.      1.
                         0.      0.      -3.28   0.      0.      -3.28
CBAR     11924   3       460     483     0.      0.      1.
                         0.      0.      -3.28   0.      0.      -3.28
$ ... 344 like lines cut
$ Elements and Element Properties for region : NERVURAS_INFERIORES
PBARL    4       1               T
         15.72   10.48   1.048   1.048
$ Pset: "NERVURAS_INFERIORES" will be imported as: "pbarl.4"
CBAR     12097   4       1       24      0.      0.      -1.
                         0.      0.      3.28    0.      0.      3.28
CBAR     12098   4       24      47      0.      0.      -1.
                         0.      0.      3.28    0.      0.      3.28
CBAR     12099   4       47      70      0.      0.      -1.
                         0.      0.      3.28    0.      0.      3.28
CBAR     12100   4       70      93      0.      0.      -1.
                         0.      0.      3.28    0.      0.      3.28
CBAR     12101   4       93      116     0.      0.      -1.
                         0.      0.      3.28    0.      0.      3.28
CBAR     12102   4       116     139     0.      0.      -1.
                         0.      0.      3.28    0.      0.      3.28
CBAR     12103   4       139     162     0.      0.      -1.
                         0.      0.      3.28    0.      0.      3.28
CBAR     12104   4       162     185     0.      0.      -1.
                         0.      0.      3.28    0.      0.      3.28
CBAR     12105   4       185     208     0.      0.      -1.
                         0.      0.      3.28    0.      0.      3.28
CBAR     12106   4       208     231     0.      0.      -1.
                         0.      0.      3.28    0.      0.      3.28
CBAR     12107   4       231     254     0.      0.      -1.
                         0.      0.      3.28    0.      0.      3.28
CBAR     12108   4       254     277     0.      0.      -1.
                         0.      0.      3.28    0.      0.      3.28
CBAR     12109   4       277     300     0.      0.      -1.
                         0.      0.      3.28    0.      0.      3.28
CBAR     12110   4       300     323     0.      0.      -1.
                         0.      0.      3.28    0.      0.      3.28
CBAR     12111   4       323     346     0.      0.      -1.
                         0.      0.      3.28    0.      0.      3.28
CBAR     12112   4       346     369     0.      0.      -1.
                         0.      0.      3.28    0.      0.      3.28
CBAR     12113   4       369     392     0.      0.      -1.
                         0.      0.      3.28    0.      0.      3.28
CBAR     12114   4       392     415     0.      0.      -1.
                         0.      0.      3.28    0.      0.      3.28
CBAR     12115   4       415     438     0.      0.      -1.
                         0.      0.      3.28    0.      0.      3.28
CBAR     12116   4       438     461     0.      0.      -1.
                         0.      0.      3.28    0.      0.      3.28
$ ... 344 like lines cut
$ Elements and Element Properties for region : STRINGERS_INFERIORES
PBARL    5       1               HAT
*        15.72           1.048           15.72           5.2399998
*
$ Pset: "STRINGERS_INFERIORES" will be imported as: "pbarl.5"
CBAR     11777   5       737     4620    0.      0.      1.
*                                        0.              0.
*        9.0600004       0.              0.              9.0600004
CBAR     11778   5       4620    4653    0.      0.      1.
*                                        0.              0.
*        9.0600004       0.              0.              9.0600004
CBAR     11779   5       4653    4686    0.      0.      1.
*                                        0.              0.
*        9.0600004       0.              0.              9.0600004
CBAR     11780   5       4686    4719    0.      0.      1.
*                                        0.              0.
*        9.0600004       0.              0.              9.0600004
CBAR     11781   5       4719    4752    0.      0.      1.
*                                        0.              0.
*        9.0600004       0.              0.              9.0600004
CBAR     11782   5       4752    4785    0.      0.      1.
*                                        0.              0.
*        9.0600004       0.              0.              9.0600004
CBAR     11783   5       4785    4818    0.      0.      1.
*                                        0.              0.
*        9.0600004       0.              0.              9.0600004
CBAR     11784   5       4818    4851    0.      0.      1.
*                                        0.              0.
*        9.0600004       0.              0.              9.0600004
CBAR     11785   5       4851    4884    0.      0.      1.
*                                        0.              0.
*        9.0600004       0.              0.              9.0600004
CBAR     11786   5       4884    4917    0.      0.      1.
*                                        0.              0.
*        9.0600004       0.              0.              9.0600004
CBAR     11787   5       4917    4950    0.      0.      1.
*                                        0.              0.
*        9.0600004       0.              0.              9.0600004
CBAR     11788   5       4950    4983    0.      0.      1.
*                                        0.              0.
*        9.0600004       0.              0.              9.0600004
CBAR     11789   5       4983    5016    0.      0.      1.
*                                        0.              0.
*        9.0600004       0.              0.              9.0600004
CBAR     11790   5       5016    5049    0.      0.      1.
*                                        0.              0.
*        9.0600004       0.              0.              9.0600004
CBAR     11791   5       5049    5082    0.      0.      1.
*                                        0.              0.
*        9.0600004       0.              0.              9.0600004
CBAR     11792   5       5082    5115    0.      0.      1.
*                                        0.              0.
*        9.0600004       0.              0.              9.0600004
CBAR     11793   5       5115    5148    0.      0.      1.
*                                        0.              0.
*        9.0600004       0.              0.              9.0600004
CBAR     11794   5       5148    5181    0.      0.      1.
*                                        0.              0.
*        9.0600004       0.              0.              9.0600004
CBAR     11795   5       5181    5214    0.      0.      1.
*                                        0.              0.
*        9.0600004       0.              0.              9.0600004
CBAR     11796   5       5214    5247    0.      0.      1.
*                                        0.              0.
*        9.0600004       0.              0.              9.0600004
$ ... 132 like lines cut
$ Elements and Element Properties for region : REVESTIMENTO
PSHELL   6       2       1.572   2               2
$ Pset: "REVESTIMENTO" will be imported as: "pshell.6"
CQUAD4   1       6       1       2       25      24
CQUAD4   2       6       2       3       26      25
CQUAD4   3       6       3       4       27      26
CQUAD4   4       6       4       5       28      27
CQUAD4   5       6       5       6       29      28
CQUAD4   6       6       6       7       30      29
CQUAD4   7       6       7       8       31      30
CQUAD4   8       6       8       9       32      31
CQUAD4   9       6       9       10      33      32
CQUAD4   10      6       10      11      34      33
CQUAD4   11      6       11      12      35      34
CQUAD4   12      6       12      13      36      35
CQUAD4   13      6       13      14      37      36
CQUAD4   14      6       14      15      38      37
CQUAD4   15      6       15      16      39      38
CQUAD4   16      6       16      17      40      39
CQUAD4   17      6       17      18      41      40
CQUAD4   18      6       18      19      42      41
CQUAD4   19      6       19      20      43      42
CQUAD4   20      6       20      21      44      43
$ ... 8684 like lines cut
$ Elements and Element Properties for region : COMPOSITO
$ Composite Property Reference Material: Laminado
$ Composite Material Description :
PCOMP    7
         3       .1      0.      YES     3       .1      45.     YES
         3       .1      -45.    YES     3       .1      90.     YES
         3       .1      90.     YES     3       .1      -45.    YES
         3       .1      45.     YES     3       .1      0.      YES
$ Pset: "COMPOSITO" will be imported as: "pcomp.7"
CQUAD4   5953    7       23      46      6437    5689
CQUAD4   5954    7       46      69      6438    6437
CQUAD4   5955    7       69      92      6439    6438
CQUAD4   5956    7       92      115     6440    6439
CQUAD4   5957    7       115     138     6441    6440
CQUAD4   5958    7       138     161     6442    6441
CQUAD4   5959    7       161     184     6443    6442
CQUAD4   5960    7       184     207     6444    6443
CQUAD4   5961    7       207     230     6445    6444
CQUAD4   5962    7       230     253     6446    6445
CQUAD4   5963    7       253     276     6447    6446
CQUAD4   5964    7       276     299     6448    6447
CQUAD4   5965    7       299     322     6449    6448
CQUAD4   5966    7       322     345     6450    6449
CQUAD4   5967    7       345     368     6451    6450
CQUAD4   5968    7       368     391     6452    6451
CQUAD4   5969    7       391     414     6453    6452
CQUAD4   5970    7       414     437     6454    6453
CQUAD4   5971    7       437     460     6455    6454
CQUAD4   5972    7       460     483     6456    6455
$ ... 3052 like lines cut
$ Referenced Material Records
$ Material Record : Al7475
$ Description of Material : Date: 14-Jul-21           Time: 15:08:11
MAT1     1      68947.57         .33
$ Material Record : Al2024
$ Description of Material : Date: 14-Jul-21           Time: 15:08:11
MAT1*    2               72394.953                       .33
*
$ Material Record : Ply
$ Description of Material : Date: 11-Nov-21           Time: 14:03:05
MAT8     3       100000. 10000.  .34     5400.   5400.   3050.
$ Nodes of the Entire Model
GRID     1               0.      0.      0.
GRID*    2                               0.              0.
*       7.14545440673828
GRID*    3                               0.              0.
*       14.2909088134766
GRID*    4                               0.              0.
*       21.4363632202148
GRID*    5                               0.              0.
*       28.5818176269531
GRID*    6                               0.              0.
*       35.7272720336914
GRID*    7                               0.              0.
*       42.8727264404297
GRID*    8                               0.              0.
*       50.0181770324707
GRID*    9                               0.              0.
*       57.1636352539063
GRID*    10                              0.              0.
*       64.3090896606445
GRID*    11                              0.              0.
*       71.4545516967773
GRID*    12                              0.              0.
*       78.6000061035156
GRID*    13                              0.              0.
*       85.7454605102539
GRID*    14                              0.              0.
*       92.8909072875977
GRID*    15                              0.              0.
*       100.036376953125
GRID*    16                              0.              0.
*       107.181831359863
GRID*    17                              0.              0.
*       114.327293395996
GRID*    18                              0.              0.
*       121.472747802734
GRID*    19                              0.              0.
*       128.618209838867
GRID*    20                              0.              0.
*        135.763671875
GRID*    21                              0.              0.
*       142.909118652344
$ ... 188 like lines cut
GRID     116             32.75   0.      0.
GRID*    117                             32.75           0.
*       7.14545440673828
GRID*    118                             32.75           0.
*       14.2909088134766
GRID*    119                             32.75           0.
*       21.4363632202148
GRID*    120                             32.75           0.
*       28.5818176269531
GRID*    121                             32.75           0.
*       35.7272720336914
GRID*    122                             32.75           0.
*       42.8727264404297
GRID*    123                             32.75           0.
*       50.0181770324707
GRID*    124                             32.75           0.
*       57.1636352539063
GRID*    125                             32.75           0.
*       64.3090896606445
GRID*    126                             32.75           0.
*       71.4545516967773
GRID*    127                             32.75           0.
*       78.6000061035156
GRID*    128                             32.75           0.
*       85.7454605102539
GRID*    129                             32.75           0.
*       92.8909072875977
GRID*    130                             32.75           0.
*       100.036376953125
GRID*    131                             32.75           0.
*       107.181831359863
GRID*    132                             32.75           0.
*       114.327293395996
GRID*    133                             32.75           0.
*       121.472747802734
GRID*    134                             32.75           0.
*       128.618209838867
GRID*    135                             32.75           0.
*        135.763671875
GRID*    136                             32.75           0.
*       142.909118652344
$ ... 188 like lines cut
GRID     231             65.5    0.      0.
GRID*    232                             65.5            0.
*       7.14545440673828
GRID*    233                             65.5            0.
*       14.2909088134766
GRID*    234                             65.5            0.
*       21.4363632202148
GRID*    235                             65.5            0.
*       28.5818176269531
GRID*    236                             65.5            0.
*       35.7272720336914
GRID*    237                             65.5            0.
*       42.8727264404297
GRID*    238                             65.5            0.
*       50.0181770324707
GRID*    239                             65.5            0.
*       57.1636352539063
GRID*    240                             65.5            0.
*       64.3090896606445
GRID*    241                             65.5            0.
*       71.4545516967773
GRID*    242                             65.5            0.
*       78.6000061035156
GRID*    243                             65.5            0.
*       85.7454605102539
GRID*    244                             65.5            0.
*       92.8909072875977
GRID*    245                             65.5            0.
*       100.036376953125
GRID*    246                             65.5            0.
*       107.181831359863
GRID*    247                             65.5            0.
*       114.327293395996
GRID*    248                             65.5            0.
*       121.472747802734
GRID*    249                             65.5            0.
*       128.618209838867
GRID*    250                             65.5            0.
*        135.763671875
GRID*    251                             65.5            0.
*       142.909118652344
$ ... 188 like lines cut
GRID     346             98.25   0.      0.
GRID*    347                             98.25           0.
*       7.14545440673828
GRID*    348                             98.25           0.
*       14.2909088134766
GRID*    349                             98.25           0.
*       21.4363632202148
GRID*    350                             98.25           0.
*       28.5818176269531
GRID*    351                             98.25           0.
*       35.7272720336914
GRID*    352                             98.25           0.
*       42.8727264404297
GRID*    353                             98.25           0.
*       50.0181770324707
GRID*    354                             98.25           0.
*       57.1636352539063
GRID*    355                             98.25           0.
*       64.3090896606445
GRID*    356                             98.25           0.
*       71.4545516967773
GRID*    357                             98.25           0.
*       78.6000061035156
GRID*    358                             98.25           0.
*       85.7454605102539
GRID*    359                             98.25           0.
*       92.8909072875977
GRID*    360                             98.25           0.
*       100.036376953125
GRID*    361                             98.25           0.
*       107.181831359863
GRID*    362                             98.25           0.
*       114.327293395996
GRID*    363                             98.25           0.
*       121.472747802734
GRID*    364                             98.25           0.
*       128.618209838867
GRID*    365                             98.25           0.
*        135.763671875
GRID*    366                             98.25           0.
*       142.909118652344
$ ... 188 like lines cut
GRID     461             131.    0.      0.
GRID*    462                             131.            0.
*       7.14545440673828
GRID*    463                             131.            0.
*       14.2909088134766
GRID*    464                             131.            0.
*       21.4363632202148
GRID*    465                             131.            0.
*       28.5818176269531
GRID*    466                             131.            0.
*       35.7272720336914
GRID*    467                             131.            0.
*       42.8727264404297
GRID*    468                             131.            0.
*       50.0181770324707
GRID*    469                             131.            0.
*       57.1636352539063
GRID*    470                             131.            0.
*       64.3090896606445
GRID*    471                             131.            0.
*       71.4545516967773
GRID*    472                             131.            0.
*       78.6000061035156
GRID*    473                             131.            0.
*       85.7454605102539
GRID*    474                             131.            0.
*       92.8909072875977
GRID*    475                             131.            0.
*       100.036376953125
GRID*    476                             131.            0.
*       107.181831359863
GRID*    477                             131.            0.
*       114.327293395996
GRID*    478                             131.            0.
*       121.472747802734
GRID*    479                             131.            0.
*       128.618209838867
GRID*    480                             131.            0.
*        135.763671875
GRID*    481                             131.            0.
*       142.909118652344
$ ... 648 like lines cut
GRID     829             229.25  0.      0.
GRID*    830                             229.25          0.
*       7.14545631408691
GRID*    831                             229.25          0.
*       14.2909126281738
GRID*    832                             229.25          0.
*       21.4363632202148
GRID*    833                             229.25          0.
*       28.5818252563477
GRID*    834                             229.25          0.
*       35.7272682189941
GRID*    835                             229.25          0.
*       42.8727264404297
GRID*    836                             229.25          0.
*       50.0181503295898
GRID*    837                             229.25          0.
*       57.1636505126953
GRID*    838                             229.25          0.
*       64.3091049194336
GRID*    839                             229.25          0.
*       71.4545364379883
GRID*    840                             229.25          0.
*       78.5999984741211
GRID*    841                             229.25          0.
*       85.7454528808594
GRID*    842                             229.25          0.
*       92.8909454345703
GRID*    843                             229.25          0.
*       100.036430358887
GRID*    844                             229.25          0.
*        107.18180847168
GRID*    845                             229.25          0.
*       114.327301025391
GRID*    846                             229.25          0.
*       121.472702026367
GRID*    847                             229.25          0.
*       128.618209838867
GRID*    848                             229.25          0.
*       135.763702392578
GRID*    849                             229.25          0.
*       142.909072875977
$ ... 188 like lines cut
GRID     944             262.    0.      0.
GRID*    945                             262.            0.
*       7.14545583724976
GRID*    946                             262.            0.
*       14.2909116744995
GRID*    947                             262.            0.
*       21.4363632202148
GRID*    948                             262.            0.
*        28.581823348999
GRID*    949                             262.            0.
*       35.7272682189941
GRID*    950                             262.            0.
*       42.8727264404297
GRID*    951                             262.            0.
*       50.0181541442871
GRID*    952                             262.            0.
*        57.163646697998
GRID*    953                             262.            0.
*       64.3091049194336
GRID*    954                             262.            0.
*       71.4545364379883
GRID*    955                             262.            0.
*       78.5999984741211
GRID*    956                             262.            0.
*       85.7454528808594
GRID*    957                             262.            0.
*       92.8909378051758
GRID*    958                             262.            0.
*       100.036422729492
GRID*    959                             262.            0.
*       107.181816101074
GRID*    960                             262.            0.
*       114.327301025391
GRID*    961                             262.            0.
*       121.472702026367
GRID*    962                             262.            0.
*       128.618209838867
GRID*    963                             262.            0.
*       135.763702392578
GRID*    964                             262.            0.
*       142.909088134766
$ ... 188 like lines cut
GRID     1059            294.75  0.      0.
GRID*    1060                            294.75          0.
*       7.14545583724976
GRID*    1061                            294.75          0.
*       14.2909116744995
GRID*    1062                            294.75          0.
*       21.4363632202148
GRID*    1063                            294.75          0.
*        28.581823348999
GRID*    1064                            294.75          0.
*       35.7272682189941
GRID*    1065                            294.75          0.
*       42.8727264404297
GRID*    1066                            294.75          0.
*       50.0181617736816
GRID*    1067                            294.75          0.
*        57.163646697998
GRID*    1068                            294.75          0.
*       64.3090972900391
GRID*    1069                            294.75          0.
*       71.4545364379883
GRID*    1070                            294.75          0.
*       78.5999984741211
GRID*    1071                            294.75          0.
*       85.7454528808594
GRID*    1072                            294.75          0.
*       92.8909301757813
GRID*    1073                            294.75          0.
*       100.036415100098
GRID*    1074                            294.75          0.
*       107.181816101074
GRID*    1075                            294.75          0.
*       114.327301025391
GRID*    1076                            294.75          0.
*       121.472709655762
GRID*    1077                            294.75          0.
*       128.618209838867
GRID*    1078                            294.75          0.
*       135.763687133789
GRID*    1079                            294.75          0.
*       142.909088134766
$ ... 188 like lines cut
GRID     1174            327.5   0.      0.
GRID*    1175                            327.5           0.
*       7.14545488357544
GRID*    1176                            327.5           0.
*       14.2909097671509
GRID*    1177                            327.5           0.
*       21.4363632202148
GRID*    1178                            327.5           0.
*       28.5818195343018
GRID*    1179                            327.5           0.
*       35.7272682189941
GRID*    1180                            327.5           0.
*       42.8727264404297
GRID*    1181                            327.5           0.
*       50.0181655883789
GRID*    1182                            327.5           0.
*       57.1636390686035
GRID*    1183                            327.5           0.
*       64.3090972900391
GRID*    1184                            327.5           0.
*       71.4545440673828
GRID*    1185                            327.5           0.
*       78.6000061035156
GRID*    1186                            327.5           0.
*       85.7454605102539
GRID*    1187                            327.5           0.
*       92.8909301757813
GRID*    1188                            327.5           0.
*       100.036407470703
GRID*    1189                            327.5           0.
*       107.181823730469
GRID*    1190                            327.5           0.
*       114.327293395996
GRID*    1191                            327.5           0.
*       121.472717285156
GRID*    1192                            327.5           0.
*       128.618209838867
GRID*    1193                            327.5           0.
*       135.763687133789
GRID*    1194                            327.5           0.
*       142.909088134766
$ ... 188 like lines cut
GRID     1289            360.25  0.      0.
GRID*    1290                            360.25          0.
*       7.14545488357544
GRID*    1291                            360.25          0.
*       14.2909097671509
GRID*    1292                            360.25          0.
*       21.4363632202148
GRID*    1293                            360.25          0.
*       28.5818195343018
GRID*    1294                            360.25          0.
*       35.7272682189941
GRID*    1295                            360.25          0.
*       42.8727264404297
GRID*    1296                            360.25          0.
*       50.0181694030762
GRID*    1297                            360.25          0.
*       57.1636390686035
GRID*    1298                            360.25          0.
*       64.3090896606445
GRID*    1299                            360.25          0.
*       71.4545440673828
GRID*    1300                            360.25          0.
*       78.6000061035156
GRID*    1301                            360.25          0.
*       85.7454605102539
GRID*    1302                            360.25          0.
*       92.8909225463867
GRID*    1303                            360.25          0.
*       100.036392211914
GRID*    1304                            360.25          0.
*       107.181823730469
GRID*    1305                            360.25          0.
*       114.327293395996
GRID*    1306                            360.25          0.
*       121.472732543945
GRID*    1307                            360.25          0.
*       128.618209838867
GRID*    1308                            360.25          0.
*       135.763687133789
GRID*    1309                            360.25          0.
*       142.909103393555
$ ... 188 like lines cut
GRID     1404            393.    0.      0.
GRID*    1405                            393.            0.
*       7.14545440673828
GRID*    1406                            393.            0.
*       14.2909088134766
GRID*    1407                            393.            0.
*       21.4363632202148
GRID*    1408                            393.            0.
*       28.5818176269531
GRID*    1409                            393.            0.
*       35.7272720336914
GRID*    1410                            393.            0.
*       42.8727264404297
GRID*    1411                            393.            0.
*       50.0181732177734
GRID*    1412                            393.            0.
*       57.1636352539063
GRID*    1413                            393.            0.
*       64.3090896606445
GRID*    1414                            393.            0.
*       71.4545516967773
GRID*    1415                            393.            0.
*       78.6000061035156
GRID*    1416                            393.            0.
*       85.7454605102539
GRID*    1417                            393.            0.
*       92.8909225463867
GRID*    1418                            393.            0.
*        100.03638458252
GRID*    1419                            393.            0.
*       107.181831359863
GRID*    1420                            393.            0.
*       114.327293395996
GRID*    1421                            393.            0.
*        121.47274017334
GRID*    1422                            393.            0.
*       128.618209838867
GRID*    1423                            393.            0.
*       135.763687133789
GRID*    1424                            393.            0.
*       142.909103393555
$ ... 188 like lines cut
GRID     1542            425.75  0.      0.
GRID*    1543                            425.75          0.
*       7.14545631408691
GRID*    1544                            425.75          0.
*       14.2909126281738
GRID*    1545                            425.75          0.
*       21.4363632202148
GRID*    1546                            425.75          0.
*       28.5818252563477
GRID*    1547                            425.75          0.
*       35.7272682189941
GRID*    1548                            425.75          0.
*       42.8727264404297
GRID*    1549                            425.75          0.
*       50.0181465148926
GRID*    1550                            425.75          0.
*       57.1636505126953
GRID*    1551                            425.75          0.
*       64.3091049194336
GRID*    1552                            425.75          0.
*       71.4545364379883
GRID*    1553                            425.75          0.
*       78.5999984741211
GRID*    1554                            425.75          0.
*       85.7454528808594
GRID*    1555                            425.75          0.
*       92.8909454345703
GRID*    1556                            425.75          0.
*       100.036445617676
GRID*    1557                            425.75          0.
*        107.18180847168
GRID*    1558                            425.75          0.
*       114.327301025391
GRID*    1559                            425.75          0.
*       121.472694396973
GRID*    1560                            425.75          0.
*       128.618209838867
GRID*    1561                            425.75          0.
*       135.763702392578
GRID*    1562                            425.75          0.
*       142.909072875977
$ ... 188 like lines cut
GRID     1657            458.5   0.      0.
GRID*    1658                            458.5           0.
*       7.14545583724976
GRID*    1659                            458.5           0.
*       14.2909116744995
GRID*    1660                            458.5           0.
*       21.4363632202148
GRID*    1661                            458.5           0.
*        28.581823348999
GRID*    1662                            458.5           0.
*       35.7272682189941
GRID*    1663                            458.5           0.
*       42.8727264404297
GRID*    1664                            458.5           0.
*       50.0181503295898
GRID*    1665                            458.5           0.
*        57.163646697998
GRID*    1666                            458.5           0.
*       64.3091049194336
GRID*    1667                            458.5           0.
*       71.4545364379883
GRID*    1668                            458.5           0.
*       78.5999984741211
GRID*    1669                            458.5           0.
*       85.7454528808594
GRID*    1670                            458.5           0.
*       92.8909378051758
GRID*    1671                            458.5           0.
*       100.036430358887
GRID*    1672                            458.5           0.
*       107.181816101074
GRID*    1673                            458.5           0.
*       114.327301025391
GRID*    1674                            458.5           0.
*       121.472702026367
GRID*    1675                            458.5           0.
*       128.618209838867
GRID*    1676                            458.5           0.
*       135.763702392578
GRID*    1677                            458.5           0.
*       142.909088134766
$ ... 188 like lines cut
GRID     1772            491.25  0.      0.
GRID*    1773                            491.25          0.
*       7.14545583724976
GRID*    1774                            491.25          0.
*       14.2909116744995
GRID*    1775                            491.25          0.
*       21.4363632202148
GRID*    1776                            491.25          0.
*        28.581823348999
GRID*    1777                            491.25          0.
*       35.7272682189941
GRID*    1778                            491.25          0.
*       42.8727264404297
GRID*    1779                            491.25          0.
*       50.0181541442871
GRID*    1780                            491.25          0.
*        57.163646697998
GRID*    1781                            491.25          0.
*       64.3091049194336
GRID*    1782                            491.25          0.
*       71.4545364379883
GRID*    1783                            491.25          0.
*       78.5999984741211
GRID*    1784                            491.25          0.
*       85.7454528808594
GRID*    1785                            491.25          0.
*       92.8909378051758
GRID*    1786                            491.25          0.
*       100.036422729492
GRID*    1787                            491.25          0.
*       107.181816101074
GRID*    1788                            491.25          0.
*       114.327301025391
GRID*    1789                            491.25          0.
*       121.472709655762
GRID*    1790                            491.25          0.
*       128.618209838867
GRID*    1791                            491.25          0.
*       135.763702392578
GRID*    1792                            491.25          0.
*       142.909088134766
$ ... 188 like lines cut
GRID     1887            524.    0.      0.
GRID*    1888                            524.            0.
*       7.14545583724976
GRID*    1889                            524.            0.
*       14.2909116744995
GRID*    1890                            524.            0.
*       21.4363632202148
GRID*    1891                            524.            0.
*        28.581823348999
GRID*    1892                            524.            0.
*       35.7272682189941
GRID*    1893                            524.            0.
*       42.8727264404297
GRID*    1894                            524.            0.
*       50.0181617736816
GRID*    1895                            524.            0.
*        57.163646697998
GRID*    1896                            524.            0.
*       64.3090972900391
GRID*    1897                            524.            0.
*       71.4545364379883
GRID*    1898                            524.            0.
*       78.5999984741211
GRID*    1899                            524.            0.
*       85.7454528808594
GRID*    1900                            524.            0.
*       92.8909301757813
GRID*    1901                            524.            0.
*       100.036415100098
GRID*    1902                            524.            0.
*       107.181816101074
GRID*    1903                            524.            0.
*       114.327301025391
GRID*    1904                            524.            0.
*       121.472717285156
GRID*    1905                            524.            0.
*       128.618209838867
GRID*    1906                            524.            0.
*       135.763687133789
GRID*    1907                            524.            0.
*       142.909088134766
$ ... 188 like lines cut
GRID     2002            556.75  0.      0.
GRID*    2003                            556.75          0.
*       7.14545488357544
GRID*    2004                            556.75          0.
*       14.2909097671509
GRID*    2005                            556.75          0.
*       21.4363632202148
GRID*    2006                            556.75          0.
*       28.5818195343018
GRID*    2007                            556.75          0.
*       35.7272682189941
GRID*    2008                            556.75          0.
*       42.8727264404297
GRID*    2009                            556.75          0.
*       50.0181655883789
GRID*    2010                            556.75          0.
*       57.1636390686035
GRID*    2011                            556.75          0.
*       64.3090896606445
GRID*    2012                            556.75          0.
*       71.4545440673828
GRID*    2013                            556.75          0.
*       78.6000061035156
GRID*    2014                            556.75          0.
*       85.7454605102539
GRID*    2015                            556.75          0.
*       92.8909225463867
GRID*    2016                            556.75          0.
*       100.036392211914
GRID*    2017                            556.75          0.
*       107.181823730469
GRID*    2018                            556.75          0.
*       114.327293395996
GRID*    2019                            556.75          0.
*       121.472732543945
GRID*    2020                            556.75          0.
*       128.618209838867
GRID*    2021                            556.75          0.
*       135.763687133789
GRID*    2022                            556.75          0.
*       142.909103393555
$ ... 188 like lines cut
GRID     2117            589.5   0.      0.
GRID*    2118                            589.5           0.
*       7.14545488357544
GRID*    2119                            589.5           0.
*       14.2909097671509
GRID*    2120                            589.5           0.
*       21.4363632202148
GRID*    2121                            589.5           0.
*       28.5818195343018
GRID*    2122                            589.5           0.
*       35.7272720336914
GRID*    2123                            589.5           0.
*       42.8727264404297
GRID*    2124                            589.5           0.
*       50.0181694030762
GRID*    2125                            589.5           0.
*       57.1636390686035
GRID*    2126                            589.5           0.
*       64.3090896606445
GRID*    2127                            589.5           0.
*       71.4545440673828
GRID*    2128                            589.5           0.
*       78.6000061035156
GRID*    2129                            589.5           0.
*       85.7454605102539
GRID*    2130                            589.5           0.
*       92.8909225463867
GRID*    2131                            589.5           0.
*        100.03638458252
GRID*    2132                            589.5           0.
*       107.181823730469
GRID*    2133                            589.5           0.
*       114.327293395996
GRID*    2134                            589.5           0.
*        121.47274017334
GRID*    2135                            589.5           0.
*       128.618209838867
GRID*    2136                            589.5           0.
*       135.763687133789
GRID*    2137                            589.5           0.
*       142.909103393555
$ ... 188 like lines cut
GRID     2232            622.25  0.      0.
GRID*    2233                            622.25          0.
*       7.14545440673828
GRID*    2234                            622.25          0.
*       14.2909088134766
GRID*    2235                            622.25          0.
*       21.4363632202148
GRID*    2236                            622.25          0.
*       28.5818176269531
GRID*    2237                            622.25          0.
*       35.7272720336914
GRID*    2238                            622.25          0.
*       42.8727264404297
GRID*    2239                            622.25          0.
*       50.0181732177734
GRID*    2240                            622.25          0.
*       57.1636352539063
GRID*    2241                            622.25          0.
*       64.3090896606445
GRID*    2242                            622.25          0.
*       71.4545516967773
GRID*    2243                            622.25          0.
*       78.6000061035156
GRID*    2244                            622.25          0.
*       85.7454605102539
GRID*    2245                            622.25          0.
*       92.8909072875977
GRID*    2246                            622.25          0.
*       100.036376953125
GRID*    2247                            622.25          0.
*       107.181831359863
GRID*    2248                            622.25          0.
*       114.327293395996
GRID*    2249                            622.25          0.
*       121.472747802734
GRID*    2250                            622.25          0.
*       128.618209838867
GRID*    2251                            622.25          0.
*        135.763671875
GRID*    2252                            622.25          0.
*       142.909118652344
$ ... 6096 like lines cut
GRID     5380            0.     -245.62512.28125
GRID*    5381                           6.55000019073486 -245.625
*        12.28125
GRID*    5382                           13.1000003814697 -245.625
*        12.28125
GRID*    5383                           19.6500015258789 -245.625
*        12.28125
GRID*    5384                           26.2000007629395 -245.625
*        12.28125
GRID     5385            32.75  -245.62512.28125
GRID*    5386                           39.3000030517578 -245.625
*        12.28125
GRID*    5387                           45.8500022888184 -245.625
*        12.28125
GRID*    5388                           52.4000015258789 -245.625
*        12.28125
GRID*    5389                           58.9500045776367 -245.625
*        12.28125
GRID     5390            65.5   -245.62512.28125
GRID*    5391                           72.0500030517578 -245.625
*        12.28125
GRID*    5392                           78.6000061035156 -245.625
*        12.28125
GRID*    5393                           85.1500015258789 -245.625
*        12.28125
GRID*    5394                           91.7000045776367 -245.625
*        12.28125
GRID*    5395                           98.2500076293945 -245.625
*        12.28125
GRID*    5396                           104.800003051758 -245.625
*        12.28125
GRID*    5397                           111.350006103516 -245.625
*        12.28125
GRID*    5398                           117.900009155273 -245.625
*        12.28125
GRID*    5399                           124.450004577637 -245.625
*        12.28125
GRID     5400            131.   -245.62512.28125
GRID*    5401                           137.550003051758 -245.625
*        12.28125
GRID*    5402                           144.100006103516 -245.625
*        12.28125
GRID*    5403                           150.650009155273 -245.625
*        12.28125
GRID*    5404                           157.200012207031 -245.625
*        12.28125
GRID*    5405                           163.750015258789 -245.625
*        12.28125
GRID*    5406                           170.300003051758 -245.625
*        12.28125
GRID*    5407                           176.850006103516 -245.625
*        12.28125
GRID*    5408                           183.400009155273 -245.625
*        12.28125
GRID*    5409                           189.950012207031 -245.625
*        12.28125
GRID     5410            196.5  -245.62512.28125
GRID*    5411                           203.050003051758 -245.625
*        12.28125
GRID*    5412                           209.600006103516 -245.625
*        12.28125
GRID*    5413                            0.             -255.44999694824
*        12.772500038147
GRID*    5414                           6.55000019073486-255.44999694824
*        12.772500038147
GRID*    5415                           13.1000003814697-255.44999694824
*        12.772500038147
GRID*    5416                           19.6500015258789-255.44999694824
*        12.772500038147
GRID*    5417                           26.2000007629395-255.44999694824
*        12.772500038147
GRID*    5418                            32.75          -255.44999694824
*        12.772500038147
GRID*    5419                           39.3000030517578-255.44999694824
*        12.772500038147
GRID*    5420                           45.8500022888184-255.44999694824
*        12.772500038147
GRID*    5421                           52.4000015258789-255.44999694824
*        12.772500038147
GRID*    5422                           58.9500045776367-255.44999694824
*        12.772500038147
GRID*    5423                            65.5           -255.44999694824
*        12.772500038147
GRID*    5424                           72.0500030517578-255.44999694824
*        12.772500038147
GRID*    5425                           78.6000061035156-255.44999694824
*        12.772500038147
GRID*    5426                           85.1500015258789-255.44999694824
*        12.772500038147
GRID*    5427                           91.7000045776367-255.44999694824
*        12.772500038147
GRID*    5428                           98.2500076293945-255.44999694824
*        12.772500038147
GRID*    5429                           104.800003051758-255.44999694824
*        12.772500038147
GRID*    5430                           111.350006103516-255.44999694824
*        12.772500038147
$ ... 1238 like lines cut
GRID     6126            0.      -196.5  147.375
GRID*    6128                            0.             -206.32499694824
*       16.5238647460938
GRID*    6129                            0.             -206.32499694824
*        22.731481552124
GRID*    6130                            0.             -206.32499694824
*       28.9390926361084
GRID*    6131                            0.             -206.32499694824
*       35.1467094421387
GRID*    6132                            0.             -206.32499694824
*       41.3543167114258
GRID*    6133                            0.             -206.32499694824
*       47.5619316101074
GRID*    6134                            0.             -206.32499694824
*       53.7695159912109
GRID*    6135                            0.             -206.32499694824
*       59.9771728515625
GRID*    6136                            0.             -206.32499694824
*       66.1847915649414
GRID*    6137                            0.             -206.32499694824
*       72.3923797607422
GRID*    6138                            0.             -206.32499694824
*       78.5999984741211
GRID*    6139                            0.             -206.32499694824
*        84.8076171875
GRID*    6140                            0.             -206.32499694824
*        91.015266418457
GRID*    6141                            0.             -206.32499694824
*       97.2229080200195
GRID*    6142                            0.             -206.32499694824
*       103.430458068848
GRID*    6143                            0.             -206.32499694824
*       109.638092041016
GRID*    6144                            0.             -206.32499694824
*       115.845649719238
GRID*    6145                            0.             -206.32499694824
*       122.053329467773
GRID*    6146                            0.             -206.32499694824
*       128.260971069336
GRID*    6147                            0.             -206.32499694824
*       134.468505859375
$ ... 1668 like lines cut
GRID     7068            32.75   -196.5  147.375
GRID*    7069                           39.3000030517578 -196.5
*        147.375
GRID*    7070                           45.8500022888184 -196.5
*        147.375
GRID*    7071                           52.4000015258789 -196.5
*        147.375
GRID*    7072                           58.9500045776367 -196.5
*        147.375
GRID     7073            65.5    -196.5  147.375
GRID*    7074                           72.0500030517578 -196.5
*        147.375
GRID*    7075                           78.6000061035156 -196.5
*        147.375
GRID*    7076                           85.1500015258789 -196.5
*        147.375
GRID*    7077                           91.7000045776367 -196.5
*        147.375
GRID*    7078                           98.2500076293945 -196.5
*        147.375
GRID*    7079                           104.800003051758 -196.5
*        147.375
GRID*    7080                           111.350006103516 -196.5
*        147.375
GRID*    7081                           117.900009155273 -196.5
*        147.375
GRID*    7082                           124.450004577637 -196.5
*        147.375
GRID     7083            131.    -196.5  147.375
GRID*    7084                           137.550003051758 -196.5
*        147.375
GRID*    7085                           144.100006103516 -196.5
*        147.375
GRID*    7086                           150.650009155273 -196.5
*        147.375
GRID*    7087                           157.200012207031 -196.5
*        147.375
GRID*    7088                           163.750015258789 -196.5
*        147.375
GRID*    7089                           170.300003051758 -196.5
*        147.375
GRID*    7090                           176.850006103516 -196.5
*        147.375
GRID*    7091                           183.400009155273 -196.5
*        147.375
GRID*    7092                           189.950012207031 -196.5
*        147.375
GRID     7093            196.5   -196.5  147.375
GRID*    7094                           203.050003051758 -196.5
*        147.375
GRID*    7095                           209.600006103516 -196.5
*        147.375
GRID*    7097                           6.55000019073486-206.32498168945
*       146.883743286133
GRID*    7098                           13.1000003814697-206.32498168945
*       146.883743286133
GRID*    7099                           19.6500015258789-206.32498168945
*       146.883743286133
GRID*    7100                           26.2000007629395-206.32498168945
*       146.883743286133
GRID*    7101                            32.75          -206.32498168945
*       146.883743286133
GRID*    7102                           39.3000030517578-206.32498168945
*       146.883743286133
GRID*    7103                           45.8500022888184-206.32498168945
*       146.883743286133
GRID*    7104                           52.4000015258789-206.32498168945
*       146.883743286133
GRID*    7105                           58.9500045776367-206.32498168945
*       146.883743286133
GRID*    7106                            65.5           -206.32498168945
*       146.883743286133
GRID*    7107                           72.0500030517578-206.32498168945
*       146.883743286133
GRID*    7108                           78.6000061035156-206.32498168945
*       146.883743286133
GRID*    7109                           85.1500015258789-206.32498168945
*       146.883743286133
GRID*    7110                           91.7000045776367-206.32498168945
*       146.883743286133
GRID*    7111                           98.2500076293945-206.32498168945
*       146.883743286133
GRID*    7112                           104.800003051758-206.32499694824
*       146.883743286133
GRID*    7113                           111.350006103516-206.32499694824
*       146.883743286133
GRID*    7114                           117.900009155273-206.32499694824
*       146.883743286133
$ ... 2208 like lines cut
GRID     8320            229.25 -245.62512.28125
GRID*    8321                           235.800003051758 -245.625
*        12.28125
GRID*    8322                           242.350006103516 -245.625
*        12.28125
GRID*    8323                           248.900009155273 -245.625
*        12.28125
GRID*    8324                           255.450012207031 -245.625
*        12.28125
GRID     8325            262.   -245.62512.28125
GRID*    8326                           268.550018310547 -245.625
*        12.28125
GRID*    8327                           275.100006103516 -245.625
*        12.28125
GRID*    8328                           281.650024414063 -245.625
*        12.28125
GRID*    8329                           288.200012207031 -245.625
*        12.28125
GRID     8330            294.75 -245.62512.28125
GRID*    8331                           301.300018310547 -245.625
*        12.28125
GRID*    8332                           307.850006103516 -245.625
*        12.28125
GRID*    8333                           314.400024414063 -245.625
*        12.28125
GRID*    8334                           320.950012207031 -245.625
*        12.28125
GRID     8335            327.5  -245.62512.28125
GRID*    8336                           334.050018310547 -245.625
*        12.28125
GRID*    8337                           340.600006103516 -245.625
*        12.28125
GRID*    8338                           347.150024414063 -245.625
*        12.28125
GRID*    8339                           353.700012207031 -245.625
*        12.28125
GRID     8340            360.25 -245.62512.28125
GRID*    8341                           366.800018310547 -245.625
*        12.28125
GRID*    8342                           373.350006103516 -245.625
*        12.28125
GRID*    8343                           379.900024414063 -245.625
*        12.28125
GRID*    8344                           386.450012207031 -245.625
*        12.28125
GRID     8345            393.   -245.62512.28125
GRID*    8346                           399.550018310547 -245.625
*        12.28125
GRID*    8347                           406.100006103516 -245.625
*        12.28125
GRID*    8348                           412.650024414063 -245.625
*        12.28125
GRID*    8349                           419.200012207031 -245.625
*        12.28125
GRID*    8351                           216.150009155273-255.44999694824
*        12.772500038147
GRID*    8352                           222.700012207031-255.44999694824
*        12.772500038147
GRID*    8353                            229.25         -255.44999694824
*        12.772500038147
GRID*    8354                           235.800003051758-255.44999694824
*        12.772500038147
GRID*    8355                           242.350006103516-255.44999694824
*        12.772500038147
GRID*    8356                           248.900009155273-255.44999694824
*        12.772500038147
GRID*    8357                           255.450012207031-255.44999694824
*        12.772500038147
GRID*    8358                            262.           -255.44999694824
*        12.772500038147
GRID*    8359                           268.550018310547-255.44999694824
*        12.772500038147
GRID*    8360                           275.100006103516-255.44999694824
*        12.772500038147
GRID*    8361                           281.650024414063-255.44999694824
*        12.772500038147
GRID*    8362                           288.200012207031-255.44999694824
*        12.772500038147
GRID*    8363                            294.75         -255.44999694824
*        12.772500038147
GRID*    8364                           301.300018310547-255.44999694824
*        12.772500038147
GRID*    8365                           307.850006103516-255.44999694824
*        12.772500038147
GRID*    8366                           314.400024414063-255.44999694824
*        12.772500038147
$ ... 1572 like lines cut
GRID     9244            229.25  -196.5  147.375
GRID*    9245                           235.800003051758 -196.5
*        147.375
GRID*    9246                           242.350006103516 -196.5
*        147.375
GRID*    9247                           248.900009155273 -196.5
*        147.375
GRID*    9248                           255.450012207031 -196.5
*        147.375
GRID     9249            262.    -196.5  147.375
GRID*    9250                           268.550018310547 -196.5
*        147.375
GRID*    9251                           275.100006103516 -196.5
*        147.375
GRID*    9252                           281.650024414063 -196.5
*        147.375
GRID*    9253                           288.200012207031 -196.5
*        147.375
GRID     9254            294.75  -196.5  147.375
GRID*    9255                           301.300018310547 -196.5
*        147.375
GRID*    9256                           307.850006103516 -196.5
*        147.375
GRID*    9257                           314.400024414063 -196.5
*        147.375
GRID*    9258                           320.950012207031 -196.5
*        147.375
GRID     9259            327.5   -196.5  147.375
GRID*    9260                           334.050018310547 -196.5
*        147.375
GRID*    9261                           340.600006103516 -196.5
*        147.375
GRID*    9262                           347.150024414063 -196.5
*        147.375
GRID*    9263                           353.700012207031 -196.5
*        147.375
GRID     9264            360.25  -196.5  147.375
GRID*    9265                           366.800018310547 -196.5
*        147.375
GRID*    9266                           373.350006103516 -196.5
*        147.375
GRID*    9267                           379.900024414063 -196.5
*        147.375
GRID*    9268                           386.450012207031 -196.5
*        147.375
GRID     9269            393.    -196.5  147.375
GRID*    9270                           399.550018310547 -196.5
*        147.375
GRID*    9271                           406.100006103516 -196.5
*        147.375
GRID*    9272                           412.650024414063 -196.5
*        147.375
GRID*    9273                           419.200012207031 -196.5
*        147.375
GRID*    9275                           216.150009155273-206.32498168945
*       146.883743286133
GRID*    9276                           222.700012207031-206.32498168945
*       146.883743286133
GRID*    9277                            229.25         -206.32498168945
*       146.883743286133
GRID*    9278                           235.800003051758-206.32498168945
*       146.883743286133
GRID*    9279                           242.350006103516-206.32498168945
*       146.883743286133
GRID*    9280                           248.900009155273-206.32498168945
*       146.883743286133
GRID*    9281                           255.450012207031-206.32498168945
*       146.883743286133
GRID*    9282                            262.           -206.32498168945
*       146.883743286133
GRID*    9283                           268.550018310547-206.32498168945
*       146.883743286133
GRID*    9284                           275.100006103516-206.32498168945
*       146.883743286133
GRID*    9285                           281.650024414063-206.32498168945
*       146.883743286133
GRID*    9286                           288.200012207031-206.32498168945
*       146.883743286133
GRID*    9287                            294.75         -206.32498168945
*       146.883743286133
GRID*    9288                           301.300018310547-206.32498168945
*       146.883743286133
GRID*    9289                           307.850006103516-206.32498168945
*       146.883743286133
GRID*    9290                           314.400024414063-206.32499694824
*       146.883743286133
$ ... 2208 like lines cut
GRID     10496           425.75 -245.62512.28125
GRID*    10497                          432.300018310547 -245.625
*        12.28125
GRID*    10498                          438.850006103516 -245.625
*        12.28125
GRID*    10499                          445.400024414063 -245.625
*        12.28125
GRID*    10500                          451.950012207031 -245.625
*        12.28125
GRID     10501           458.5  -245.62512.28125
GRID*    10502                          465.050018310547 -245.625
*        12.28125
GRID*    10503                          471.600006103516 -245.625
*        12.28125
GRID*    10504                          478.149963378906 -245.625
*        12.28125
GRID*    10505                          484.700012207031 -245.625
*        12.28125
GRID*    10506                          491.250030517578 -245.625
*        12.28125
GRID*    10507                          497.800018310547 -245.625
*        12.28125
GRID*    10508                          504.350006103516 -245.625
*        12.28125
GRID*    10509                          510.900024414063 -245.625
*        12.28125
GRID*    10510                          517.450012207031 -245.625
*        12.28125
GRID     10511           524.   -245.62512.28125
GRID*    10512                          530.549926757813 -245.625
*        12.28125
GRID*    10513                          537.100036621094 -245.625
*        12.28125
GRID*    10514                          543.650024414063 -245.625
*        12.28125
GRID*    10515                          550.200012207031 -245.625
*        12.28125
GRID     10516           556.75 -245.62512.28125
GRID*    10517                          563.300048828125 -245.625
*        12.28125
GRID*    10518                          569.850036621094 -245.625
*        12.28125
GRID*    10519                          576.400024414063 -245.625
*        12.28125
GRID*    10520                          582.950012207031 -245.625
*        12.28125
GRID*    10521                          589.500061035156 -245.625
*        12.28125
GRID*    10522                          596.050048828125 -245.625
*        12.28125
GRID*    10523                          602.600036621094 -245.625
*        12.28125
GRID*    10524                          609.150024414063 -245.625
*        12.28125
GRID*    10525                          615.700073242188 -245.625
*        12.28125
GRID*    10526                          622.250061035156 -245.625
*        12.28125
GRID*    10527                          628.800048828125 -245.625
*        12.28125
GRID*    10529                           425.75         -255.44999694824
*        12.772500038147
GRID*    10530                          432.300018310547-255.44999694824
*        12.772500038147
GRID*    10531                          438.850006103516-255.44999694824
*        12.772500038147
GRID*    10532                          445.400024414063-255.44999694824
*        12.772500038147
GRID*    10533                          451.950012207031-255.44999694824
*        12.772500038147
GRID*    10534                           458.5          -255.44999694824
*        12.772500038147
GRID*    10535                          465.050018310547-255.44999694824
*        12.772500038147
GRID*    10536                          471.600006103516-255.44999694824
*        12.772500038147
GRID*    10537                          478.149963378906-255.44999694824
*        12.772500038147
$ ... 2908 like lines cut
GRID     12179           425.75  -196.5  147.375
GRID*    12180                          432.300018310547 -196.5
*        147.375
GRID*    12181                          438.850006103516 -196.5
*        147.375
GRID*    12182                          445.400024414063 -196.5
*        147.375
GRID*    12183                          451.950012207031 -196.5
*        147.375
GRID     12184           458.5   -196.5  147.375
GRID*    12185                          465.050018310547 -196.5
*        147.375
GRID*    12186                          471.600006103516 -196.5
*        147.375
GRID*    12187                          478.149963378906 -196.5
*        147.375
GRID*    12188                          484.700012207031 -196.5
*        147.375
GRID*    12189                          491.250030517578 -196.5
*        147.375
GRID*    12190                          497.800018310547 -196.5
*        147.375
GRID*    12191                          504.350006103516 -196.5
*        147.375
GRID*    12192                          510.900024414063 -196.5
*        147.375
GRID*    12193                          517.450012207031 -196.5
*        147.375
GRID     12194           524.    -196.5  147.375
GRID*    12195                          530.549926757813 -196.5
*        147.375
GRID*    12196                          537.100036621094 -196.5
*        147.375
GRID*    12197                          543.650024414063 -196.5
*        147.375
GRID*    12198                          550.200012207031 -196.5
*        147.375
GRID     12199           556.75  -196.5  147.375
GRID*    12200                          563.300048828125 -196.5
*        147.375
GRID*    12201                          569.850036621094 -196.5
*        147.375
GRID*    12202                          576.400024414063 -196.5
*        147.375
GRID*    12203                          582.950012207031 -196.5
*        147.375
GRID*    12204                          589.500061035156 -196.5
*        147.375
GRID*    12205                          596.050048828125 -196.5
*        147.375
GRID*    12206                          602.600036621094 -196.5
*        147.375
GRID*    12207                          609.150024414063 -196.5
*        147.375
GRID*    12208                          615.700073242188 -196.5
*        147.375
GRID*    12209                          622.250061035156 -196.5
*        147.375
GRID*    12212                           425.75         -206.32498168945
*       146.883743286133
GRID*    12213                          432.300018310547-206.32498168945
*       146.883743286133
GRID*    12214                          438.850006103516-206.32498168945
*       146.883743286133
GRID*    12215                          445.400024414063-206.32498168945
*       146.883743286133
GRID*    12216                          451.950012207031-206.32498168945
*       146.883743286133
GRID*    12217                           458.5          -206.32498168945
*       146.883743286133
GRID*    12218                          465.050018310547-206.32498168945
*       146.883743286133
GRID*    12219                          471.600006103516-206.32498168945
*       146.883743286133
GRID*    12220                          478.149963378906-206.32498168945
*       146.883743286133
GRID*    12221                          484.700012207031-206.32498168945
*       146.883743286133
$ ... 662 like lines cut
$ Loads for Load Case : Default
SPCADD   2       1
LOAD     2       1.      1.      1       1.      3       1.      4
         1.      5
$ Displacement Constraints of Load Set : ENGASTE
SPC1     1       123456  1       THRU    23
SPC1     1       123456  737     759     1496    1518
SPC1     1       123456  2255    THRU    2277
$ Nodal Forces of Load Set : F1
FORCE    1       2278    0      16581.43 0.      0.      -1.
FORCE    1       2300    0      16581.43 0.      0.      -1.
$ Nodal Forces of Load Set : F2
FORCE*   3               4532            0               5527.1401
*        0.              0.              -1.
FORCE*   3               4554            0               5527.1401
*        0.              0.              -1.
$ Nodal Forces of Load Set : F3
FORCE*   4               2278            0               2210.8501
*        0.              1.              0.
FORCE*   4               4532            0               2210.8501
*        0.              1.              0.
$ Nodal Forces of Load Set : F4
FORCE    5       2300    0       3316.28 0.      -1.     0.
FORCE    5       4554    0       3316.28 0.      -1.     0.
$ Referenced Coordinate Frames
ENDDATA e145fdb1
