$ MSC.Nastran input file created on November  24, 2021 at 20:20:18 by
$ Patran 2021.1  (Student Edition)
$ Direct Text Input for Nastran System Cell Section
$ Direct Text Input for File Management Section
$ Direct Text Input for Executive Control
$ Linear Static Analysis, Database
SOL 101
CEND
$ Direct Text Input for Global Case Control Data
TITLE = MSC.Nastran job created on 24-Nov-21 at 20:20:01
ECHO = NONE
SUBCASE 1
   SUBTITLE=Default
   SPC = 2
   LOAD = 2
   DISPLACEMENT(SORT1,REAL)=ALL
   SPCFORCES(SORT1,REAL)=ALL
   OLOAD(SORT1,REAL)=ALL
   STRAIN(SORT1,REAL,VONMISES,STRCUR,BILIN)=ALL
   STRESS(SORT1,REAL,VONMISES,BILIN)=ALL
$ Direct Text Input for this Subcase
BEGIN BULK
$ Direct Text Input for Bulk Data
MDLPRM   HDF5    0
PARAM   PRTMAXIM YES
$ Elements and Element Properties for region : LONGARINAS_SUPERIORES
PBARL    1       1               T
         15.72   10.48   1.048   1.048
$ Pset: "LONGARINAS_SUPERIORES" will be imported as: "pbarl.1"
CBAR     7681    1       21      3817    0.      0.      1.
                         0.      0.      -3.28   0.      0.      -3.28
CBAR     7682    1       3817    3838    0.      0.      1.
                         0.      0.      -3.28   0.      0.      -3.28
CBAR     7683    1       3838    3859    0.      0.      1.
                         0.      0.      -3.28   0.      0.      -3.28
CBAR     7684    1       3859    3880    0.      0.      1.
                         0.      0.      -3.28   0.      0.      -3.28
CBAR     7685    1       3880    3901    0.      0.      1.
                         0.      0.      -3.28   0.      0.      -3.28
CBAR     7686    1       3901    3922    0.      0.      1.
                         0.      0.      -3.28   0.      0.      -3.28
CBAR     7687    1       3922    3943    0.      0.      1.
                         0.      0.      -3.28   0.      0.      -3.28
CBAR     7688    1       3943    3964    0.      0.      1.
                         0.      0.      -3.28   0.      0.      -3.28
CBAR     7689    1       3964    3985    0.      0.      1.
                         0.      0.      -3.28   0.      0.      -3.28
CBAR     7690    1       3985    4006    0.      0.      1.
                         0.      0.      -3.28   0.      0.      -3.28
CBAR     7691    1       4006    4027    0.      0.      1.
                         0.      0.      -3.28   0.      0.      -3.28
CBAR     7692    1       4027    4048    0.      0.      1.
                         0.      0.      -3.28   0.      0.      -3.28
CBAR     7693    1       4048    4069    0.      0.      1.
                         0.      0.      -3.28   0.      0.      -3.28
CBAR     7694    1       4069    4090    0.      0.      1.
                         0.      0.      -3.28   0.      0.      -3.28
CBAR     7695    1       4090    4111    0.      0.      1.
                         0.      0.      -3.28   0.      0.      -3.28
CBAR     7696    1       4111    4132    0.      0.      1.
                         0.      0.      -3.28   0.      0.      -3.28
CBAR     7697    1       4132    4153    0.      0.      1.
                         0.      0.      -3.28   0.      0.      -3.28
CBAR     7698    1       4153    4174    0.      0.      1.
                         0.      0.      -3.28   0.      0.      -3.28
CBAR     7699    1       4174    4195    0.      0.      1.
                         0.      0.      -3.28   0.      0.      -3.28
CBAR     7700    1       4195    4216    0.      0.      1.
                         0.      0.      -3.28   0.      0.      -3.28
$ ... 56 like lines cut
$ Elements and Element Properties for region : LONGARINAS_INFERIORES
PBARL    2       1               T
         15.72   10.48   1.048   1.048
$ Pset: "LONGARINAS_INFERIORES" will be imported as: "pbarl.2"
CBAR     7729    2       1       3176    0.      0.      -1.
                         0.      0.      3.28    0.      0.      3.28
CBAR     7730    2       3176    3201    0.      0.      -1.
                         0.      0.      3.28    0.      0.      3.28
CBAR     7731    2       3201    3226    0.      0.      -1.
                         0.      0.      3.28    0.      0.      3.28
CBAR     7732    2       3226    3251    0.      0.      -1.
                         0.      0.      3.28    0.      0.      3.28
CBAR     7733    2       3251    3276    0.      0.      -1.
                         0.      0.      3.28    0.      0.      3.28
CBAR     7734    2       3276    3301    0.      0.      -1.
                         0.      0.      3.28    0.      0.      3.28
CBAR     7735    2       3301    3326    0.      0.      -1.
                         0.      0.      3.28    0.      0.      3.28
CBAR     7736    2       3326    3351    0.      0.      -1.
                         0.      0.      3.28    0.      0.      3.28
CBAR     7737    2       3351    3376    0.      0.      -1.
                         0.      0.      3.28    0.      0.      3.28
CBAR     7738    2       3376    3401    0.      0.      -1.
                         0.      0.      3.28    0.      0.      3.28
CBAR     7739    2       3401    3426    0.      0.      -1.
                         0.      0.      3.28    0.      0.      3.28
CBAR     7740    2       3426    3451    0.      0.      -1.
                         0.      0.      3.28    0.      0.      3.28
CBAR     7741    2       3451    3476    0.      0.      -1.
                         0.      0.      3.28    0.      0.      3.28
CBAR     7742    2       3476    3501    0.      0.      -1.
                         0.      0.      3.28    0.      0.      3.28
CBAR     7743    2       3501    3526    0.      0.      -1.
                         0.      0.      3.28    0.      0.      3.28
CBAR     7744    2       3526    3551    0.      0.      -1.
                         0.      0.      3.28    0.      0.      3.28
CBAR     7745    2       3551    3576    0.      0.      -1.
                         0.      0.      3.28    0.      0.      3.28
CBAR     7746    2       3576    3601    0.      0.      -1.
                         0.      0.      3.28    0.      0.      3.28
CBAR     7747    2       3601    3626    0.      0.      -1.
                         0.      0.      3.28    0.      0.      3.28
CBAR     7748    2       3626    3651    0.      0.      -1.
                         0.      0.      3.28    0.      0.      3.28
$ ... 56 like lines cut
$ Elements and Element Properties for region : NERVURAS_SUPERIORES
PBARL    3       1               T
         15.72   10.48   1.048   1.048
$ Pset: "NERVURAS_SUPERIORES" will be imported as: "pbarl.3"
CBAR     7393    3       21      42      0.      0.      1.
                         0.      0.      -3.28   0.      0.      -3.28
CBAR     7394    3       42      63      0.      0.      1.
                         0.      0.      -3.28   0.      0.      -3.28
CBAR     7395    3       63      84      0.      0.      1.
                         0.      0.      -3.28   0.      0.      -3.28
CBAR     7396    3       84      105     0.      0.      1.
                         0.      0.      -3.28   0.      0.      -3.28
CBAR     7397    3       105     126     0.      0.      1.
                         0.      0.      -3.28   0.      0.      -3.28
CBAR     7398    3       126     147     0.      0.      1.
                         0.      0.      -3.28   0.      0.      -3.28
CBAR     7399    3       147     168     0.      0.      1.
                         0.      0.      -3.28   0.      0.      -3.28
CBAR     7400    3       168     189     0.      0.      1.
                         0.      0.      -3.28   0.      0.      -3.28
CBAR     7401    3       189     210     0.      0.      1.
                         0.      0.      -3.28   0.      0.      -3.28
CBAR     7402    3       210     231     0.      0.      1.
                         0.      0.      -3.28   0.      0.      -3.28
CBAR     7403    3       231     252     0.      0.      1.
                         0.      0.      -3.28   0.      0.      -3.28
CBAR     7404    3       252     273     0.      0.      1.
                         0.      0.      -3.28   0.      0.      -3.28
CBAR     7405    3       273     294     0.      0.      1.
                         0.      0.      -3.28   0.      0.      -3.28
CBAR     7406    3       294     315     0.      0.      1.
                         0.      0.      -3.28   0.      0.      -3.28
CBAR     7407    3       315     336     0.      0.      1.
                         0.      0.      -3.28   0.      0.      -3.28
CBAR     7408    3       336     357     0.      0.      1.
                         0.      0.      -3.28   0.      0.      -3.28
CBAR     7409    3       357     378     0.      0.      1.
                         0.      0.      -3.28   0.      0.      -3.28
CBAR     7410    3       378     399     0.      0.      1.
                         0.      0.      -3.28   0.      0.      -3.28
CBAR     7411    3       399     420     0.      0.      1.
                         0.      0.      -3.28   0.      0.      -3.28
CBAR     7412    3       420     441     0.      0.      1.
                         0.      0.      -3.28   0.      0.      -3.28
$ ... 248 like lines cut
$ Elements and Element Properties for region : NERVURAS_INFERIORES
PBARL    4       1               T
         15.72   10.48   1.048   1.048
$ Pset: "NERVURAS_INFERIORES" will be imported as: "pbarl.4"
CBAR     7537    4       1       22      0.      0.      -1.
                         0.      0.      3.28    0.      0.      3.28
CBAR     7538    4       22      43      0.      0.      -1.
                         0.      0.      3.28    0.      0.      3.28
CBAR     7539    4       43      64      0.      0.      -1.
                         0.      0.      3.28    0.      0.      3.28
CBAR     7540    4       64      85      0.      0.      -1.
                         0.      0.      3.28    0.      0.      3.28
CBAR     7541    4       85      106     0.      0.      -1.
                         0.      0.      3.28    0.      0.      3.28
CBAR     7542    4       106     127     0.      0.      -1.
                         0.      0.      3.28    0.      0.      3.28
CBAR     7543    4       127     148     0.      0.      -1.
                         0.      0.      3.28    0.      0.      3.28
CBAR     7544    4       148     169     0.      0.      -1.
                         0.      0.      3.28    0.      0.      3.28
CBAR     7545    4       169     190     0.      0.      -1.
                         0.      0.      3.28    0.      0.      3.28
CBAR     7546    4       190     211     0.      0.      -1.
                         0.      0.      3.28    0.      0.      3.28
CBAR     7547    4       211     232     0.      0.      -1.
                         0.      0.      3.28    0.      0.      3.28
CBAR     7548    4       232     253     0.      0.      -1.
                         0.      0.      3.28    0.      0.      3.28
CBAR     7549    4       253     274     0.      0.      -1.
                         0.      0.      3.28    0.      0.      3.28
CBAR     7550    4       274     295     0.      0.      -1.
                         0.      0.      3.28    0.      0.      3.28
CBAR     7551    4       295     316     0.      0.      -1.
                         0.      0.      3.28    0.      0.      3.28
CBAR     7552    4       316     337     0.      0.      -1.
                         0.      0.      3.28    0.      0.      3.28
CBAR     7553    4       337     358     0.      0.      -1.
                         0.      0.      3.28    0.      0.      3.28
CBAR     7554    4       358     379     0.      0.      -1.
                         0.      0.      3.28    0.      0.      3.28
CBAR     7555    4       379     400     0.      0.      -1.
                         0.      0.      3.28    0.      0.      3.28
CBAR     7556    4       400     421     0.      0.      -1.
                         0.      0.      3.28    0.      0.      3.28
$ ... 248 like lines cut
$ Elements and Element Properties for region : STRINGERS_INFERIORES
PBARL    5       1               HAT
*        15.72           1.048           15.72           5.2399998
*
$ Pset: "STRINGERS_INFERIORES" will be imported as: "pbarl.5"
CBAR     7297    5       505     3200    0.      0.      1.
*                                        0.              0.
*        9.0600004       0.              0.              9.0600004
CBAR     7298    5       3200    3225    0.      0.      1.
*                                        0.              0.
*        9.0600004       0.              0.              9.0600004
CBAR     7299    5       3225    3250    0.      0.      1.
*                                        0.              0.
*        9.0600004       0.              0.              9.0600004
CBAR     7300    5       3250    3275    0.      0.      1.
*                                        0.              0.
*        9.0600004       0.              0.              9.0600004
CBAR     7301    5       3275    3300    0.      0.      1.
*                                        0.              0.
*        9.0600004       0.              0.              9.0600004
CBAR     7302    5       3300    3325    0.      0.      1.
*                                        0.              0.
*        9.0600004       0.              0.              9.0600004
CBAR     7303    5       3325    3350    0.      0.      1.
*                                        0.              0.
*        9.0600004       0.              0.              9.0600004
CBAR     7304    5       3350    3375    0.      0.      1.
*                                        0.              0.
*        9.0600004       0.              0.              9.0600004
CBAR     7305    5       3375    3400    0.      0.      1.
*                                        0.              0.
*        9.0600004       0.              0.              9.0600004
CBAR     7306    5       3400    3425    0.      0.      1.
*                                        0.              0.
*        9.0600004       0.              0.              9.0600004
CBAR     7307    5       3425    3450    0.      0.      1.
*                                        0.              0.
*        9.0600004       0.              0.              9.0600004
CBAR     7308    5       3450    3475    0.      0.      1.
*                                        0.              0.
*        9.0600004       0.              0.              9.0600004
CBAR     7309    5       3475    3500    0.      0.      1.
*                                        0.              0.
*        9.0600004       0.              0.              9.0600004
CBAR     7310    5       3500    3525    0.      0.      1.
*                                        0.              0.
*        9.0600004       0.              0.              9.0600004
CBAR     7311    5       3525    3550    0.      0.      1.
*                                        0.              0.
*        9.0600004       0.              0.              9.0600004
CBAR     7312    5       3550    3575    0.      0.      1.
*                                        0.              0.
*        9.0600004       0.              0.              9.0600004
CBAR     7313    5       3575    3600    0.      0.      1.
*                                        0.              0.
*        9.0600004       0.              0.              9.0600004
CBAR     7314    5       3600    3625    0.      0.      1.
*                                        0.              0.
*        9.0600004       0.              0.              9.0600004
CBAR     7315    5       3625    3650    0.      0.      1.
*                                        0.              0.
*        9.0600004       0.              0.              9.0600004
CBAR     7316    5       3650    3675    0.      0.      1.
*                                        0.              0.
*        9.0600004       0.              0.              9.0600004
$ ... 84 like lines cut
$ Elements and Element Properties for region : REVESTIMENTO
PSHELL   6       2       1.572   2               2
$ Pset: "REVESTIMENTO" will be imported as: "pshell.6"
CQUAD4   1       6       1       2       23      22
CQUAD4   2       6       2       3       24      23
CQUAD4   3       6       3       4       25      24
CQUAD4   4       6       4       5       26      25
CQUAD4   5       6       5       6       27      26
CQUAD4   6       6       6       7       28      27
CQUAD4   7       6       7       8       29      28
CQUAD4   8       6       8       9       30      29
CQUAD4   9       6       9       10      31      30
CQUAD4   10      6       10      11      32      31
CQUAD4   11      6       11      12      33      32
CQUAD4   12      6       12      13      34      33
CQUAD4   13      6       13      14      35      34
CQUAD4   14      6       14      15      36      35
CQUAD4   15      6       15      16      37      36
CQUAD4   16      6       16      17      38      37
CQUAD4   17      6       17      18      39      38
CQUAD4   18      6       18      19      40      39
CQUAD4   19      6       19      20      41      40
CQUAD4   20      6       20      21      42      41
$ ... 5548 like lines cut
$ Elements and Element Properties for region : COMPOSITO
$ Composite Property Reference Material: Laminado
$ Composite Material Description :
PCOMP    7
         3       .1      0.      YES     3       .1      45.     YES
         3       .1      -45.    YES     3       .1      90.     YES
         3       .1      90.     YES     3       .1      -45.    YES
         3       .1      45.     YES     3       .1      0.      YES
$ Pset: "COMPOSITO" will be imported as: "pcomp.7"
CQUAD4   3937    7       21      42      4327    3817
CQUAD4   3938    7       42      63      4328    4327
CQUAD4   3939    7       63      84      4329    4328
CQUAD4   3940    7       84      105     4330    4329
CQUAD4   3941    7       105     126     4331    4330
CQUAD4   3942    7       126     147     4332    4331
CQUAD4   3943    7       147     168     4333    4332
CQUAD4   3944    7       168     189     4334    4333
CQUAD4   3945    7       189     210     4335    4334
CQUAD4   3946    7       210     231     4336    4335
CQUAD4   3947    7       231     252     4337    4336
CQUAD4   3948    7       252     273     4338    4337
CQUAD4   3949    7       273     294     4339    4338
CQUAD4   3950    7       294     315     4340    4339
CQUAD4   3951    7       315     336     4341    4340
CQUAD4   3952    7       336     357     4342    4341
CQUAD4   3953    7       357     378     4343    4342
CQUAD4   3954    7       378     399     4344    4343
CQUAD4   3955    7       399     420     4345    4344
CQUAD4   3956    7       420     441     4346    4345
$ ... 1708 like lines cut
$ Referenced Material Records
$ Material Record : Al7475
$ Description of Material : Date: 14-Jul-21           Time: 15:08:11
MAT1     1      68947.57         .33
$ Material Record : Al2024
$ Description of Material : Date: 14-Jul-21           Time: 15:08:11
MAT1*    2               72394.953                       .33
*
$ Material Record : Ply
$ Description of Material : Date: 11-Nov-21           Time: 14:03:05
MAT8     3       100000. 10000.  .34     5400.   5400.   3050.
$ Nodes of the Entire Model
GRID     1               0.      0.      0.
GRID*    2                               0.              0.
*       7.85999965667725
GRID*    3                               0.              0.
*       15.7199993133545
GRID*    4                               0.              0.
*       23.5799999237061
GRID*    5                               0.              0.
*       31.4400005340576
GRID*    6                               0.              0.
*       39.2999992370605
GRID*    7                               0.              0.
*       47.1599998474121
GRID*    8                               0.              0.
*       55.0199966430664
GRID*    9                               0.              0.
*       62.8800048828125
GRID*    10                              0.              0.
*       70.7399978637695
GRID*    11                              0.              0.
*       78.5999984741211
GRID*    12                              0.              0.
*       86.4599990844727
GRID*    13                              0.              0.
*       94.3199996948242
GRID*    14                              0.              0.
*       102.179992675781
GRID*    15                              0.              0.
*       110.039993286133
GRID*    16                              0.              0.
*       117.899993896484
GRID*    17                              0.              0.
*       125.760009765625
GRID*    18                              0.              0.
*       133.619995117188
GRID*    19                              0.              0.
*       141.479995727539
GRID*    20                              0.              0.
*        149.34001159668
GRID*    21                              0.              0.
*       157.199996948242
$ ... 588 like lines cut
GRID     316             131.    0.      0.
GRID*    317                             131.            0.
*       7.85999965667725
GRID*    318                             131.            0.
*       15.7199993133545
GRID*    319                             131.            0.
*       23.5799999237061
GRID*    320                             131.            0.
*       31.4400005340576
GRID*    321                             131.            0.
*       39.2999992370605
GRID*    322                             131.            0.
*       47.1599998474121
GRID*    323                             131.            0.
*       55.0199966430664
GRID*    324                             131.            0.
*       62.8800048828125
GRID*    325                             131.            0.
*       70.7399978637695
GRID*    326                             131.            0.
*       78.5999984741211
GRID*    327                             131.            0.
*       86.4599990844727
GRID*    328                             131.            0.
*       94.3199996948242
GRID*    329                             131.            0.
*       102.179992675781
GRID*    330                             131.            0.
*       110.039993286133
GRID*    331                             131.            0.
*       117.899993896484
GRID*    332                             131.            0.
*       125.760009765625
GRID*    333                             131.            0.
*       133.619995117188
GRID*    334                             131.            0.
*       141.479995727539
GRID*    335                             131.            0.
*        149.34001159668
GRID*    336                             131.            0.
*       157.199996948242
$ ... 588 like lines cut
GRID     652             262.    0.      0.
GRID*    653                             262.            0.
*       7.85999917984009
GRID*    654                             262.            0.
*       15.7199983596802
GRID*    655                             262.            0.
*       23.5799980163574
GRID*    656                             262.            0.
*       31.4399967193604
GRID*    657                             262.            0.
*       39.2999992370605
GRID*    658                             262.            0.
*       47.1599960327148
GRID*    659                             262.            0.
*       55.0199966430664
GRID*    660                             262.            0.
*       62.8799934387207
GRID*    661                             262.            0.
*       70.7399978637695
GRID*    662                             262.            0.
*       78.5999984741211
GRID*    663                             262.            0.
*       86.4599990844727
GRID*    664                             262.            0.
*       94.3199920654297
GRID*    665                             262.            0.
*       102.179992675781
GRID*    666                             262.            0.
*       110.039993286133
GRID*    667                             262.            0.
*       117.899993896484
GRID*    668                             262.            0.
*       125.759986877441
GRID*    669                             262.            0.
*       133.619995117188
GRID*    670                             262.            0.
*       141.479995727539
GRID*    671                             262.            0.
*       149.339996337891
GRID*    672                             262.            0.
*       157.199996948242
$ ... 1218 like lines cut
GRID     1303            524.    0.      0.
GRID*    1304                            524.            0.
*       7.85999917984009
GRID*    1305                            524.            0.
*       15.7199983596802
GRID*    1306                            524.            0.
*       23.5799980163574
GRID*    1307                            524.            0.
*        31.439998626709
GRID*    1308                            524.            0.
*       39.2999992370605
GRID*    1309                            524.            0.
*       47.1599960327148
GRID*    1310                            524.            0.
*       55.0199966430664
GRID*    1311                            524.            0.
*        62.879997253418
GRID*    1312                            524.            0.
*       70.7399978637695
GRID*    1313                            524.            0.
*       78.5999984741211
GRID*    1314                            524.            0.
*       86.4599990844727
GRID*    1315                            524.            0.
*       94.3199920654297
GRID*    1316                            524.            0.
*       102.179992675781
GRID*    1317                            524.            0.
*       110.039993286133
GRID*    1318                            524.            0.
*       117.899993896484
GRID*    1319                            524.            0.
*        125.76000213623
GRID*    1320                            524.            0.
*       133.619995117188
GRID*    1321                            524.            0.
*       141.479995727539
GRID*    1322                            524.            0.
*        149.34001159668
GRID*    1323                            524.            0.
*       157.199996948242
$ ... 4888 like lines cut
GRID     3886            0.      -65.5   40.9375
GRID*    3887                            0.              -65.5
*       48.4699974060059
GRID*    3888                            0.              -65.5
*        56.002498626709
GRID*    3889                            0.              -65.5
*       63.5349960327148
GRID*    3890                            0.              -65.5
*        71.067497253418
GRID*    3891                            0.              -65.5
*       78.5999984741211
GRID*    3892                            0.              -65.5
*       86.1324996948242
GRID*    3893                            0.              -65.5
*       93.6649932861328
GRID*    3894                            0.              -65.5
*       101.197494506836
GRID*    3895                            0.              -65.5
*       108.729995727539
GRID*    3896                            0.              -65.5
*       116.262496948242
GRID*    3897                            0.              -65.5
*       123.794990539551
GRID*    3898                            0.              -65.5
*       131.327499389648
GRID*    3899                            0.              -65.5
*       138.860000610352
GRID*    3900                            0.              -65.5
*       146.392501831055
GRID*    3901                            0.              -65.5
*       153.925003051758
GRID*    3903                            0.             -78.599998474121
*       11.3969993591309
GRID*    3904                            0.             -78.599998474121
*       18.8639984130859
GRID*    3905                            0.             -78.599998474121
*        26.330997467041
GRID*    3906                            0.             -78.599998474121
*       33.7979965209961
GRID*    3907                            0.             -78.599998474121
*       41.2649993896484
$ ... 178 like lines cut
GRID     4001            0.      -131.   114.625
GRID*    4002                            0.              -131.
*        121.82999420166
GRID*    4003                            0.              -131.
*        129.03498840332
GRID*    4004                            0.              -131.
*       136.239990234375
GRID*    4005                            0.              -131.
*        143.44499206543
GRID*    4006                            0.              -131.
*       150.649993896484
GRID*    4008                            0.             -144.09991455078
*       14.3444957733154
GRID*    4009                            0.             -144.09992980957
*       21.4839954376221
GRID*    4010                            0.             -144.09992980957
*       28.6234951019287
GRID*    4011                            0.             -144.09992980957
*        35.762996673584
GRID*    4012                            0.             -144.09992980957
*       42.9024963378906
GRID*    4013                            0.             -144.09992980957
*       50.0419960021973
GRID*    4014                            0.             -144.09994506836
*       57.1814994812012
GRID*    4015                            0.             -144.09994506836
*       64.3209991455078
GRID*    4016                            0.             -144.09996032715
*       71.4604949951172
GRID*    4017                            0.             -144.09996032715
*       78.5999984741211
GRID*    4018                            0.             -144.09996032715
*        85.739501953125
GRID*    4019                            0.             -144.09996032715
*       92.8789978027344
GRID*    4020                            0.             -144.09996032715
*       100.018493652344
GRID*    4021                            0.             -144.09997558594
*       107.157997131348
GRID*    4022                            0.             -144.09997558594
*       114.297500610352
$ ... 168 like lines cut
GRID     4111            0.      -196.5  147.375
GRID*    4113                            0.             -209.60005187988
*       17.2920017242432
GRID*    4114                            0.             -209.60005187988
*       24.1040019989014
GRID*    4115                            0.             -209.60005187988
*       30.9160003662109
GRID*    4116                            0.             -209.60003662109
*       37.7280006408691
GRID*    4117                            0.             -209.60003662109
*       44.5400009155273
GRID*    4118                            0.             -209.60003662109
*       51.3519973754883
GRID*    4119                            0.             -209.60003662109
*       58.1640014648438
GRID*    4120                            0.             -209.60003662109
*       64.9759979248047
GRID*    4121                            0.             -209.60003662109
*       71.7880020141602
GRID*    4122                            0.              -209.6000213623
*       78.5999984741211
GRID*    4123                            0.              -209.6000213623
*       85.4120025634766
GRID*    4124                            0.              -209.6000213623
*        92.223991394043
GRID*    4125                            0.              -209.6000213623
*       99.0359954833984
GRID*    4126                            0.              -209.6000213623
*       105.847999572754
GRID*    4127                            0.              -209.6000213623
*       112.659996032715
GRID*    4128                            0.              -209.6000213623
*       119.471992492676
GRID*    4129                            0.             -209.60000610352
*       126.283996582031
GRID*    4130                            0.             -209.60000610352
*       133.095993041992
GRID*    4131                            0.             -209.60000610352
*       139.907989501953
GRID*    4132                            0.             -209.60000610352
*       146.720001220703
$ ... 124 like lines cut
GRID     4199            0.      -262.   32.75
GRID*    4200                            0.              -262.
*       39.2999992370605
GRID*    4201                            0.              -262.
*       45.8499984741211
GRID*    4202                            0.              -262.
*       52.3999977111816
GRID*    4203                            0.              -262.
*       58.9500007629395
GRID     4204            0.      -262.   65.5
GRID*    4205                            0.              -262.
*       72.0499954223633
GRID*    4206                            0.              -262.
*       78.5999984741211
GRID*    4207                            0.              -262.
*       85.1500015258789
GRID*    4208                            0.              -262.
*       91.6999969482422
GRID     4209            0.      -262.   98.25
GRID*    4210                            0.              -262.
*       104.799995422363
GRID*    4211                            0.              -262.
*       111.349998474121
GRID*    4212                            0.              -262.
*       117.899993896484
GRID*    4213                            0.              -262.
*       124.449989318848
GRID     4214            0.      -262.   131.
GRID*    4215                            0.              -262.
*       137.549987792969
GRID*    4216                            0.              -262.
*       144.099990844727
GRID*    4218                            0.             -275.10000610352
*       20.2395000457764
GRID*    4219                            0.             -275.10000610352
*       26.7239990234375
GRID*    4220                            0.             -275.10000610352
*       33.2084999084473
GRID*    4221                            0.             -275.10000610352
*       39.6929969787598
GRID*    4222                            0.             -275.10000610352
*       46.1775016784668
GRID*    4223                            0.             -275.10000610352
*       52.6619987487793
GRID*    4224                            0.             -275.10000610352
*       59.1464996337891
GRID*    4225                            0.             -275.10000610352
*       65.6309967041016
GRID*    4226                            0.             -275.10000610352
*       72.1155014038086
GRID*    4227                            0.             -275.10000610352
*       78.5999984741211
GRID*    4228                            0.             -275.10000610352
*       85.0845031738281
GRID*    4229                            0.             -275.10000610352
*       91.5689926147461
GRID*    4230                            0.             -275.10000610352
*       98.0534973144531
GRID*    4231                            0.             -275.10000610352
*       104.537994384766
GRID*    4232                            0.             -275.10000610352
*       111.022499084473
GRID*    4233                            0.             -275.10000610352
*       117.506988525391
GRID*    4234                            0.             -275.10000610352
*       123.991493225098
GRID*    4235                            0.             -275.10000610352
*       130.475997924805
$ ... 784 like lines cut
GRID     4691            131.    -196.5  147.375
GRID*    4692                           139.733352661133 -196.5
*        147.375
GRID*    4693                           148.466644287109 -196.5
*        147.375
GRID*    4694                           157.200012207031 -196.5
*        147.375
GRID*    4695                           165.933334350586 -196.5
*        147.375
GRID*    4696                            174.66667175293 -196.5
*        147.375
GRID*    4697                           183.400009155273 -196.5
*        147.375
GRID*    4698                            192.13330078125 -196.5
*        147.375
GRID*    4699                            200.86669921875 -196.5
*        147.375
GRID*    4700                           209.600006103516 -196.5
*        147.375
GRID*    4702                            8.7333345413208-209.60003662109
*       146.720001220703
GRID*    4703                           17.4666690826416-209.60003662109
*       146.720001220703
GRID*    4704                           26.2000007629395-209.60003662109
*       146.720001220703
GRID*    4705                            34.933292388916-209.60003662109
*       146.720001220703
GRID*    4706                           43.6666679382324-209.60003662109
*       146.720001220703
GRID*    4707                           52.4000015258789 -209.6000213623
*       146.720001220703
GRID*    4708                           61.1333160400391 -209.6000213623
*       146.720001220703
GRID*    4709                           69.8666763305664 -209.6000213623
*       146.720001220703
GRID*    4710                           78.6000061035156 -209.6000213623
*       146.720001220703
GRID*    4711                           87.3333358764648 -209.6000213623
*       146.720001220703
GRID*    4712                           96.0666580200195 -209.6000213623
*       146.720001220703
$ ... 2148 like lines cut
GRID     5932            262.    -196.5  147.375
GRID*    5933                           270.733306884766 -196.5
*        147.375
GRID*    5934                           279.466705322266 -196.5
*        147.375
GRID*    5935                           288.200012207031 -196.5
*        147.375
GRID*    5936                           296.933349609375 -196.5
*        147.375
GRID*    5937                           305.666656494141 -196.5
*        147.375
GRID*    5938                           314.400024414063 -196.5
*        147.375
GRID*    5939                           323.133361816406 -196.5
*        147.375
GRID*    5940                           331.866638183594 -196.5
*        147.375
GRID*    5941                           340.600006103516 -196.5
*        147.375
GRID*    5942                           349.333374023438 -196.5
*        147.375
GRID*    5943                           358.066650390625 -196.5
*        147.375
GRID*    5944                           366.800018310547 -196.5
*        147.375
GRID*    5945                           375.533325195313 -196.5
*        147.375
GRID*    5946                           384.266662597656 -196.5
*        147.375
GRID     5947            393.    -196.5  147.375
GRID*    5948                           401.733306884766 -196.5
*        147.375
GRID*    5949                           410.466705322266 -196.5
*        147.375
GRID*    5950                           419.200012207031 -196.5
*        147.375
GRID*    5952                           218.333343505859-209.60003662109
*       146.720001220703
GRID*    5953                           227.066680908203-209.60003662109
*       146.720001220703
GRID*    5954                           235.800003051758-209.60003662109
*       146.720001220703
GRID*    5955                           244.533340454102-209.60003662109
*       146.720001220703
GRID*    5956                           253.266677856445-209.60003662109
*       146.720001220703
GRID*    5957                            262.            -209.6000213623
*       146.720001220703
GRID*    5958                           270.733306884766 -209.6000213623
*       146.720001220703
GRID*    5959                           279.466705322266 -209.6000213623
*       146.720001220703
GRID*    5960                           288.200012207031 -209.6000213623
*       146.720001220703
GRID*    5961                           296.933349609375 -209.6000213623
*       146.720001220703
GRID*    5962                           305.666656494141 -209.6000213623
*       146.720001220703
GRID*    5963                           314.400024414063 -209.6000213623
*       146.720001220703
GRID*    5964                           323.133361816406 -209.6000213623
*       146.720001220703
GRID*    5965                           331.866638183594 -209.6000213623
*       146.720001220703
GRID*    5966                           340.600006103516 -209.6000213623
*       146.720001220703
GRID*    5967                           349.333374023438 -209.6000213623
*       146.720001220703
GRID*    5968                           358.066650390625 -209.6000213623
*       146.720001220703
$ ... 3040 like lines cut
GRID     7713            524.    -196.5  147.375
GRID*    7714                            532.7333984375  -196.5
*        147.375
GRID*    7715                           541.466674804688 -196.5
*        147.375
GRID*    7716                           550.200012207031 -196.5
*        147.375
GRID*    7717                           558.933410644531 -196.5
*        147.375
GRID*    7718                           567.666687011719 -196.5
*        147.375
GRID*    7719                           576.400024414063 -196.5
*        147.375
GRID*    7720                           585.133361816406 -196.5
*        147.375
GRID*    7721                            593.86669921875 -196.5
*        147.375
GRID*    7722                           602.600036621094 -196.5
*        147.375
GRID*    7723                           611.333312988281 -196.5
*        147.375
GRID*    7724                           620.066711425781 -196.5
*        147.375
GRID*    7727                           427.933349609375-209.60003662109
*       146.720001220703
GRID*    7728                           436.666687011719-209.60003662109
*       146.720001220703
GRID*    7729                           445.400024414063-209.60003662109
*       146.720001220703
GRID*    7730                           454.133361816406-209.60003662109
*       146.720001220703
GRID*    7731                           462.866668701172-209.60003662109
*       146.720001220703
GRID*    7732                           471.600006103516-209.60003662109
*       146.720001220703
GRID*    7733                           480.333343505859-209.60003662109
*       146.720001220703
GRID*    7734                           489.066650390625-209.60003662109
*       146.720001220703
GRID*    7735                           497.800018310547-209.60003662109
*       146.720001220703
$ ... 350 like lines cut
$ Loads for Load Case : Default
SPCADD   2       1
LOAD     2       1.      1.      1       1.      3       1.      4
         1.      5
$ Displacement Constraints of Load Set : ENGASTE
SPC1     1       123456  1       THRU    21
SPC1     1       123456  505     525     1030    1050
SPC1     1       123456  1555    THRU    1575
$ Nodal Forces of Load Set : F1
FORCE*   1               1576            0               47658.629
*        0.              0.              1.
FORCE*   1               1596            0               47658.629
*        0.              0.              1.
$ Nodal Forces of Load Set : F2
FORCE    3       3130    0       15886.2 0.      0.      1.
FORCE    3       3150    0       15886.2 0.      0.      1.
$ Nodal Forces of Load Set : F3
FORCE    4       1576    0       6354.48 0.      -1.     0.
FORCE    4       3130    0       6354.48 0.      -1.     0.
$ Nodal Forces of Load Set : F4
FORCE*   5               1596            0               9531.7197
*        0.              1.              0.
FORCE*   5               3150            0               9531.7197
*        0.              1.              0.
$ Referenced Coordinate Frames
ENDDATA 6b41e3a0
