$ MSC.Nastran input file created on November  24, 2021 at 20:28:40 by
$ Patran 2021.1  (Student Edition)
$ Direct Text Input for Nastran System Cell Section
$ Direct Text Input for File Management Section
$ Direct Text Input for Executive Control
$ Linear Static Analysis, Database
SOL 101
CEND
$ Direct Text Input for Global Case Control Data
TITLE = MSC.Nastran job created on 24-Nov-21 at 20:28:35
ECHO = NONE
SUBCASE 1
   SUBTITLE=Default
   SPC = 2
   LOAD = 2
   DISPLACEMENT(SORT1,REAL)=ALL
   SPCFORCES(SORT1,REAL)=ALL
   OLOAD(SORT1,REAL)=ALL
   STRAIN(SORT1,REAL,VONMISES,STRCUR,BILIN)=ALL
   STRESS(SORT1,REAL,VONMISES,BILIN)=ALL
$ Direct Text Input for this Subcase
BEGIN BULK
$ Direct Text Input for Bulk Data
MDLPRM   HDF5    0
PARAM   PRTMAXIM YES
$ Elements and Element Properties for region : LONGARINAS_SUPERIORES
PBARL    1       1               T
         15.72   10.48   1.048   1.048
$ Pset: "LONGARINAS_SUPERIORES" will be imported as: "pbarl.1"
CBAR     4393    1       16      2217    0.      0.      1.
                         0.      0.      -3.28   0.      0.      -3.28
CBAR     4394    1       2217    2233    0.      0.      1.
                         0.      0.      -3.28   0.      0.      -3.28
CBAR     4395    1       2233    2249    0.      0.      1.
                         0.      0.      -3.28   0.      0.      -3.28
CBAR     4396    1       2249    2265    0.      0.      1.
                         0.      0.      -3.28   0.      0.      -3.28
CBAR     4397    1       2265    2281    0.      0.      1.
                         0.      0.      -3.28   0.      0.      -3.28
CBAR     4398    1       2281    2297    0.      0.      1.
                         0.      0.      -3.28   0.      0.      -3.28
CBAR     4399    1       2297    2313    0.      0.      1.
                         0.      0.      -3.28   0.      0.      -3.28
CBAR     4400    1       2313    2329    0.      0.      1.
                         0.      0.      -3.28   0.      0.      -3.28
CBAR     4401    1       2329    2345    0.      0.      1.
                         0.      0.      -3.28   0.      0.      -3.28
CBAR     4402    1       2345    2361    0.      0.      1.
                         0.      0.      -3.28   0.      0.      -3.28
CBAR     4403    1       2361    2377    0.      0.      1.
                         0.      0.      -3.28   0.      0.      -3.28
CBAR     4404    1       2377    2393    0.      0.      1.
                         0.      0.      -3.28   0.      0.      -3.28
CBAR     4405    1       2393    2409    0.      0.      1.
                         0.      0.      -3.28   0.      0.      -3.28
CBAR     4406    1       2409    2425    0.      0.      1.
                         0.      0.      -3.28   0.      0.      -3.28
CBAR     4407    1       2425    2441    0.      0.      1.
                         0.      0.      -3.28   0.      0.      -3.28
CBAR     4408    1       2441    2457    0.      0.      1.
                         0.      0.      -3.28   0.      0.      -3.28
CBAR     4409    1       2457    2473    0.      0.      1.
                         0.      0.      -3.28   0.      0.      -3.28
CBAR     4410    1       2473    928     0.      0.      1.
                         0.      0.      -3.28   0.      0.      -3.28
CBAR     4411    1       912     3965    0.      0.      1.
                         0.      0.      -3.28   0.      0.      -3.28
CBAR     4412    1       3965    3981    0.      0.      1.
                         0.      0.      -3.28   0.      0.      -3.28
$ ... 32 like lines cut
$ Elements and Element Properties for region : LONGARINAS_INFERIORES
PBARL    2       1               T
         15.72   10.48   1.048   1.048
$ Pset: "LONGARINAS_INFERIORES" will be imported as: "pbarl.2"
CBAR     4429    2       1       1844    0.      0.      -1.
                         0.      0.      3.28    0.      0.      3.28
CBAR     4430    2       1844    1863    0.      0.      -1.
                         0.      0.      3.28    0.      0.      3.28
CBAR     4431    2       1863    1882    0.      0.      -1.
                         0.      0.      3.28    0.      0.      3.28
CBAR     4432    2       1882    1901    0.      0.      -1.
                         0.      0.      3.28    0.      0.      3.28
CBAR     4433    2       1901    1920    0.      0.      -1.
                         0.      0.      3.28    0.      0.      3.28
CBAR     4434    2       1920    1939    0.      0.      -1.
                         0.      0.      3.28    0.      0.      3.28
CBAR     4435    2       1939    1958    0.      0.      -1.
                         0.      0.      3.28    0.      0.      3.28
CBAR     4436    2       1958    1977    0.      0.      -1.
                         0.      0.      3.28    0.      0.      3.28
CBAR     4437    2       1977    1996    0.      0.      -1.
                         0.      0.      3.28    0.      0.      3.28
CBAR     4438    2       1996    2015    0.      0.      -1.
                         0.      0.      3.28    0.      0.      3.28
CBAR     4439    2       2015    2034    0.      0.      -1.
                         0.      0.      3.28    0.      0.      3.28
CBAR     4440    2       2034    2053    0.      0.      -1.
                         0.      0.      3.28    0.      0.      3.28
CBAR     4441    2       2053    2072    0.      0.      -1.
                         0.      0.      3.28    0.      0.      3.28
CBAR     4442    2       2072    2091    0.      0.      -1.
                         0.      0.      3.28    0.      0.      3.28
CBAR     4443    2       2091    2110    0.      0.      -1.
                         0.      0.      3.28    0.      0.      3.28
CBAR     4444    2       2110    2129    0.      0.      -1.
                         0.      0.      3.28    0.      0.      3.28
CBAR     4445    2       2129    2148    0.      0.      -1.
                         0.      0.      3.28    0.      0.      3.28
CBAR     4446    2       2148    913     0.      0.      -1.
                         0.      0.      3.28    0.      0.      3.28
CBAR     4447    2       897     3610    0.      0.      -1.
                         0.      0.      3.28    0.      0.      3.28
CBAR     4448    2       3610    3629    0.      0.      -1.
                         0.      0.      3.28    0.      0.      3.28
$ ... 32 like lines cut
$ Elements and Element Properties for region : NERVURAS_SUPERIORES
PBARL    3       1               T
         15.72   10.48   1.048   1.048
$ Pset: "NERVURAS_SUPERIORES" will be imported as: "pbarl.3"
CBAR     4177    3       16      32      0.      0.      1.
                         0.      0.      -3.28   0.      0.      -3.28
CBAR     4178    3       32      48      0.      0.      1.
                         0.      0.      -3.28   0.      0.      -3.28
CBAR     4179    3       48      64      0.      0.      1.
                         0.      0.      -3.28   0.      0.      -3.28
CBAR     4180    3       64      80      0.      0.      1.
                         0.      0.      -3.28   0.      0.      -3.28
CBAR     4181    3       80      96      0.      0.      1.
                         0.      0.      -3.28   0.      0.      -3.28
CBAR     4182    3       96      112     0.      0.      1.
                         0.      0.      -3.28   0.      0.      -3.28
CBAR     4183    3       112     128     0.      0.      1.
                         0.      0.      -3.28   0.      0.      -3.28
CBAR     4184    3       128     144     0.      0.      1.
                         0.      0.      -3.28   0.      0.      -3.28
CBAR     4185    3       144     160     0.      0.      1.
                         0.      0.      -3.28   0.      0.      -3.28
CBAR     4186    3       160     176     0.      0.      1.
                         0.      0.      -3.28   0.      0.      -3.28
CBAR     4187    3       176     192     0.      0.      1.
                         0.      0.      -3.28   0.      0.      -3.28
CBAR     4188    3       192     208     0.      0.      1.
                         0.      0.      -3.28   0.      0.      -3.28
CBAR     4189    3       208     224     0.      0.      1.
                         0.      0.      -3.28   0.      0.      -3.28
CBAR     4190    3       224     240     0.      0.      1.
                         0.      0.      -3.28   0.      0.      -3.28
CBAR     4191    3       240     256     0.      0.      1.
                         0.      0.      -3.28   0.      0.      -3.28
CBAR     4192    3       256     272     0.      0.      1.
                         0.      0.      -3.28   0.      0.      -3.28
CBAR     4193    3       272     288     0.      0.      1.
                         0.      0.      -3.28   0.      0.      -3.28
CBAR     4194    3       288     304     0.      0.      1.
                         0.      0.      -3.28   0.      0.      -3.28
CBAR     4195    3       304     336     0.      0.      1.
                         0.      0.      -3.28   0.      0.      -3.28
CBAR     4196    3       336     352     0.      0.      1.
                         0.      0.      -3.28   0.      0.      -3.28
$ ... 176 like lines cut
$ Elements and Element Properties for region : NERVURAS_INFERIORES
PBARL    4       1               T
         15.72   10.48   1.048   1.048
$ Pset: "NERVURAS_INFERIORES" will be imported as: "pbarl.4"
CBAR     4285    4       1       17      0.      0.      -1.
                         0.      0.      3.28    0.      0.      3.28
CBAR     4286    4       17      33      0.      0.      -1.
                         0.      0.      3.28    0.      0.      3.28
CBAR     4287    4       33      49      0.      0.      -1.
                         0.      0.      3.28    0.      0.      3.28
CBAR     4288    4       49      65      0.      0.      -1.
                         0.      0.      3.28    0.      0.      3.28
CBAR     4289    4       65      81      0.      0.      -1.
                         0.      0.      3.28    0.      0.      3.28
CBAR     4290    4       81      97      0.      0.      -1.
                         0.      0.      3.28    0.      0.      3.28
CBAR     4291    4       97      113     0.      0.      -1.
                         0.      0.      3.28    0.      0.      3.28
CBAR     4292    4       113     129     0.      0.      -1.
                         0.      0.      3.28    0.      0.      3.28
CBAR     4293    4       129     145     0.      0.      -1.
                         0.      0.      3.28    0.      0.      3.28
CBAR     4294    4       145     161     0.      0.      -1.
                         0.      0.      3.28    0.      0.      3.28
CBAR     4295    4       161     177     0.      0.      -1.
                         0.      0.      3.28    0.      0.      3.28
CBAR     4296    4       177     193     0.      0.      -1.
                         0.      0.      3.28    0.      0.      3.28
CBAR     4297    4       193     209     0.      0.      -1.
                         0.      0.      3.28    0.      0.      3.28
CBAR     4298    4       209     225     0.      0.      -1.
                         0.      0.      3.28    0.      0.      3.28
CBAR     4299    4       225     241     0.      0.      -1.
                         0.      0.      3.28    0.      0.      3.28
CBAR     4300    4       241     257     0.      0.      -1.
                         0.      0.      3.28    0.      0.      3.28
CBAR     4301    4       257     273     0.      0.      -1.
                         0.      0.      3.28    0.      0.      3.28
CBAR     4302    4       273     289     0.      0.      -1.
                         0.      0.      3.28    0.      0.      3.28
CBAR     4303    4       289     321     0.      0.      -1.
                         0.      0.      3.28    0.      0.      3.28
CBAR     4304    4       321     337     0.      0.      -1.
                         0.      0.      3.28    0.      0.      3.28
$ ... 176 like lines cut
$ Elements and Element Properties for region : STRINGERS_INFERIORES
PBARL    5       1               HAT
*        15.72           1.048           15.72           5.2399998
*
$ Pset: "STRINGERS_INFERIORES" will be imported as: "pbarl.5"
CBAR     4105    5       289     1862    0.      0.      1.
*                                        0.              0.
*        9.0600004       0.              0.              9.0600004
CBAR     4106    5       1862    1881    0.      0.      1.
*                                        0.              0.
*        9.0600004       0.              0.              9.0600004
CBAR     4107    5       1881    1900    0.      0.      1.
*                                        0.              0.
*        9.0600004       0.              0.              9.0600004
CBAR     4108    5       1900    1919    0.      0.      1.
*                                        0.              0.
*        9.0600004       0.              0.              9.0600004
CBAR     4109    5       1919    1938    0.      0.      1.
*                                        0.              0.
*        9.0600004       0.              0.              9.0600004
CBAR     4110    5       1938    1957    0.      0.      1.
*                                        0.              0.
*        9.0600004       0.              0.              9.0600004
CBAR     4111    5       1957    1976    0.      0.      1.
*                                        0.              0.
*        9.0600004       0.              0.              9.0600004
CBAR     4112    5       1976    1995    0.      0.      1.
*                                        0.              0.
*        9.0600004       0.              0.              9.0600004
CBAR     4113    5       1995    2014    0.      0.      1.
*                                        0.              0.
*        9.0600004       0.              0.              9.0600004
CBAR     4114    5       2014    2033    0.      0.      1.
*                                        0.              0.
*        9.0600004       0.              0.              9.0600004
CBAR     4115    5       2033    2052    0.      0.      1.
*                                        0.              0.
*        9.0600004       0.              0.              9.0600004
CBAR     4116    5       2052    2071    0.      0.      1.
*                                        0.              0.
*        9.0600004       0.              0.              9.0600004
CBAR     4117    5       2071    2090    0.      0.      1.
*                                        0.              0.
*        9.0600004       0.              0.              9.0600004
CBAR     4118    5       2090    2109    0.      0.      1.
*                                        0.              0.
*        9.0600004       0.              0.              9.0600004
CBAR     4119    5       2109    2128    0.      0.      1.
*                                        0.              0.
*        9.0600004       0.              0.              9.0600004
CBAR     4120    5       2128    2147    0.      0.      1.
*                                        0.              0.
*        9.0600004       0.              0.              9.0600004
CBAR     4121    5       2147    2166    0.      0.      1.
*                                        0.              0.
*        9.0600004       0.              0.              9.0600004
CBAR     4122    5       2166    1201    0.      0.      1.
*                                        0.              0.
*        9.0600004       0.              0.              9.0600004
CBAR     4123    5       593     2888    0.      0.      1.
*                                        0.              0.
*        9.0600004       0.              0.              9.0600004
CBAR     4124    5       2888    2907    0.      0.      1.
*                                        0.              0.
*        9.0600004       0.              0.              9.0600004
$ ... 48 like lines cut
$ Elements and Element Properties for region : REVESTIMENTO
PSHELL   6       2       1.572   2               2
$ Pset: "REVESTIMENTO" will be imported as: "pshell.6"
CQUAD4   1       6       1       2       18      17
CQUAD4   2       6       2       3       19      18
CQUAD4   3       6       3       4       20      19
CQUAD4   4       6       4       5       21      20
CQUAD4   5       6       5       6       22      21
CQUAD4   6       6       6       7       23      22
CQUAD4   7       6       7       8       24      23
CQUAD4   8       6       8       9       25      24
CQUAD4   9       6       9       10      26      25
CQUAD4   10      6       10      11      27      26
CQUAD4   11      6       11      12      28      27
CQUAD4   12      6       12      13      29      28
CQUAD4   13      6       13      14      30      29
CQUAD4   14      6       14      15      31      30
CQUAD4   15      6       15      16      32      31
CQUAD4   16      6       17      18      34      33
CQUAD4   17      6       18      19      35      34
CQUAD4   18      6       19      20      36      35
CQUAD4   19      6       20      21      37      36
CQUAD4   20      6       21      22      38      37
$ ... 3112 like lines cut
$ Elements and Element Properties for region : COMPOSITO
$ Composite Property Reference Material: Laminado
$ Composite Material Description :
PCOMP    7
         3       .1      0.      YES     3       .1      45.     YES
         3       .1      -45.    YES     3       .1      90.     YES
         3       .1      90.     YES     3       .1      -45.    YES
         3       .1      45.     YES     3       .1      0.      YES
$ Pset: "COMPOSITO" will be imported as: "pcomp.7"
CQUAD4   2215    7       16      32      2510    2217
CQUAD4   2216    7       32      48      2511    2510
CQUAD4   2217    7       48      64      2512    2511
CQUAD4   2218    7       64      80      2513    2512
CQUAD4   2219    7       80      96      2514    2513
CQUAD4   2220    7       96      112     2515    2514
CQUAD4   2221    7       112     128     2516    2515
CQUAD4   2222    7       128     144     2517    2516
CQUAD4   2223    7       144     160     2518    2517
CQUAD4   2224    7       160     176     2519    2518
CQUAD4   2225    7       176     192     2520    2519
CQUAD4   2226    7       192     208     2521    2520
CQUAD4   2227    7       208     224     2522    2521
CQUAD4   2228    7       224     240     2523    2522
CQUAD4   2229    7       240     256     2524    2523
CQUAD4   2230    7       256     272     2525    2524
CQUAD4   2231    7       272     288     2526    2525
CQUAD4   2232    7       288     304     2527    2526
CQUAD4   2233    7       2217    2510    2529    2233
CQUAD4   2234    7       2510    2511    2530    2529
$ ... 952 like lines cut
$ Referenced Material Records
$ Material Record : Al7475
$ Description of Material : Date: 14-Jul-21           Time: 15:08:11
MAT1     1      68947.57         .33
$ Material Record : Al2024
$ Description of Material : Date: 14-Jul-21           Time: 15:08:11
MAT1*    2               72394.953                       .33
*
$ Material Record : Ply
$ Description of Material : Date: 11-Nov-21           Time: 14:03:05
MAT8     3       100000. 10000.  .34     5400.   5400.   3050.
$ Nodes of the Entire Model
GRID     1               0.      0.      0.
GRID*    2                               0.              0.
*       10.4800004959106
GRID*    3                               0.              0.
*       20.9600009918213
GRID*    4                               0.              0.
*        31.439998626709
GRID*    5                               0.              0.
*       41.9200019836426
GRID*    6                               0.              0.
*       52.3999977111816
GRID*    7                               0.              0.
*        62.879997253418
GRID*    8                               0.              0.
*       73.3600006103516
GRID*    9                               0.              0.
*       83.8400039672852
GRID*    10                              0.              0.
*       94.3199996948242
GRID*    11                              0.              0.
*       104.800010681152
GRID*    12                              0.              0.
*       115.280006408691
GRID*    13                              0.              0.
*       125.760009765625
GRID*    14                              0.              0.
*       136.240020751953
GRID*    15                              0.              0.
*       146.720016479492
GRID*    16                              0.              0.
*       157.199996948242
GRID*    17                             11.6444444656372 0.
*        0.
GRID*    18                             11.6444444656372 0.
*       10.4800004959106
GRID*    19                             11.6444444656372 0.
*       20.9600009918213
GRID*    20                             11.6444444656372 0.
*        31.439998626709
GRID*    21                             11.6444444656372 0.
*       41.9200019836426
$ ... 1398 like lines cut
GRID     753             524.    0.      0.
GRID*    754                             524.            0.
*       10.4800033569336
GRID*    755                             524.            0.
*       20.9600067138672
GRID*    756                             524.            0.
*       31.4399967193604
GRID*    757                             524.            0.
*       41.9200134277344
GRID*    758                             524.            0.
*       52.4000091552734
GRID*    759                             524.            0.
*       62.8799934387207
GRID*    760                             524.            0.
*       73.3600006103516
GRID*    761                             524.            0.
*        83.839973449707
GRID*    762                             524.            0.
*       94.3199920654297
GRID*    763                             524.            0.
*       104.800018310547
GRID*    764                             524.            0.
*       115.279991149902
GRID*    765                             524.            0.
*        125.76000213623
GRID*    766                             524.            0.
*       136.240005493164
GRID*    767                             524.            0.
*       146.720016479492
GRID*    768                             524.            0.
*       157.199996948242
GRID*    769                            535.644470214844 0.
*        0.
GRID*    770                            535.644470214844 0.
*       10.4800024032593
GRID*    771                            535.644470214844 0.
*       20.9600048065186
GRID*    772                            535.644470214844 0.
*        31.439998626709
GRID*    773                            535.644470214844 0.
*       41.9200096130371
$ ... 3114 like lines cut
GRID     2432            0.      -262.   65.5
GRID*    2433                            0.              -262.
*       74.2333374023438
GRID*    2434                            0.              -262.
*       82.9666290283203
GRID*    2435                            0.              -262.
*       91.6999969482422
GRID*    2436                            0.              -262.
*        100.43335723877
GRID*    2437                            0.              -262.
*       109.166641235352
GRID*    2438                            0.              -262.
*       117.899993896484
GRID*    2439                            0.              -262.
*       126.633331298828
GRID*    2440                            0.              -262.
*       135.366683959961
GRID*    2441                            0.              -262.
*       144.099990844727
GRID*    2443                            0.             -279.46673583984
*       22.5902214050293
GRID*    2444                            0.             -279.46673583984
*       31.2071075439453
GRID*    2445                            0.             -279.46670532227
*       39.8240013122559
GRID*    2446                            0.             -279.46670532227
*       48.4408760070801
GRID*    2447                            0.             -279.46670532227
*       57.0577926635742
GRID*    2448                            0.             -279.46670532227
*       65.6746673583984
GRID*    2449                            0.             -279.46670532227
*       74.2915573120117
GRID*    2450                            0.             -279.46670532227
*       82.9084091186523
GRID*    2451                            0.             -279.46670532227
*       91.5253295898438
GRID*    2452                            0.             -279.46670532227
*       100.142250061035
GRID*    2453                            0.             -279.46670532227
*       108.759086608887
$ ... 3574 like lines cut
$ Loads for Load Case : Default
SPCADD   2       1
LOAD     2       1.      1.      1       1.      3       1.      4
         1.      5
$ Displacement Constraints of Load Set : ENGASTE
SPC1     1       123456  1       THRU    16
SPC1     1       123456  289     304     593     608
SPC1     1       123456  897     THRU    912
$ Nodal Forces of Load Set : F1
FORCE*   1               913             0               47658.629
*        0.              0.              1.
FORCE*   1               928             0               47658.629
*        0.              0.              1.
$ Nodal Forces of Load Set : F2
FORCE    3       1809    0       15886.2 0.      0.      1.
FORCE    3       1824    0       15886.2 0.      0.      1.
$ Nodal Forces of Load Set : F3
FORCE    4       913     0       6354.48 0.      -1.     0.
FORCE    4       1809    0       6354.48 0.      -1.     0.
$ Nodal Forces of Load Set : F4
FORCE*   5               928             0               9531.7197
*        0.              1.              0.
FORCE*   5               1824            0               9531.7197
*        0.              1.              0.
$ Referenced Coordinate Frames
ENDDATA a23ea33c
