$ MSC.Nastran input file created on November  24, 2021 at 20:24:53 by
$ Patran 2021.1  (Student Edition)
$ Direct Text Input for Nastran System Cell Section
$ Direct Text Input for File Management Section
$ Direct Text Input for Executive Control
$ Linear Static Analysis, Database
SOL 101
CEND
$ Direct Text Input for Global Case Control Data
TITLE = MSC.Nastran job created on 24-Nov-21 at 20:24:48
ECHO = NONE
SUBCASE 1
   SUBTITLE=Default
   SPC = 2
   LOAD = 2
   DISPLACEMENT(SORT1,REAL)=ALL
   SPCFORCES(SORT1,REAL)=ALL
   OLOAD(SORT1,REAL)=ALL
   STRAIN(SORT1,REAL,VONMISES,STRCUR,BILIN)=ALL
   STRESS(SORT1,REAL,VONMISES,BILIN)=ALL
$ Direct Text Input for this Subcase
BEGIN BULK
$ Direct Text Input for Bulk Data
MDLPRM   HDF5    0
PARAM   PRTMAXIM YES
$ Elements and Element Properties for region : LONGARINAS_SUPERIORES
PBARL    1       1               T
         15.72   10.48   1.048   1.048
$ Pset: "LONGARINAS_SUPERIORES" will be imported as: "pbarl.1"
CBAR     6777    1       21      3469    0.      0.      1.
                         0.      0.      -3.28   0.      0.      -3.28
CBAR     6778    1       3469    3490    0.      0.      1.
                         0.      0.      -3.28   0.      0.      -3.28
CBAR     6779    1       3490    3511    0.      0.      1.
                         0.      0.      -3.28   0.      0.      -3.28
CBAR     6780    1       3511    3532    0.      0.      1.
                         0.      0.      -3.28   0.      0.      -3.28
CBAR     6781    1       3532    3553    0.      0.      1.
                         0.      0.      -3.28   0.      0.      -3.28
CBAR     6782    1       3553    3574    0.      0.      1.
                         0.      0.      -3.28   0.      0.      -3.28
CBAR     6783    1       3574    3595    0.      0.      1.
                         0.      0.      -3.28   0.      0.      -3.28
CBAR     6784    1       3595    3616    0.      0.      1.
                         0.      0.      -3.28   0.      0.      -3.28
CBAR     6785    1       3616    3637    0.      0.      1.
                         0.      0.      -3.28   0.      0.      -3.28
CBAR     6786    1       3637    3658    0.      0.      1.
                         0.      0.      -3.28   0.      0.      -3.28
CBAR     6787    1       3658    3679    0.      0.      1.
                         0.      0.      -3.28   0.      0.      -3.28
CBAR     6788    1       3679    3700    0.      0.      1.
                         0.      0.      -3.28   0.      0.      -3.28
CBAR     6789    1       3700    3721    0.      0.      1.
                         0.      0.      -3.28   0.      0.      -3.28
CBAR     6790    1       3721    3742    0.      0.      1.
                         0.      0.      -3.28   0.      0.      -3.28
CBAR     6791    1       3742    3763    0.      0.      1.
                         0.      0.      -3.28   0.      0.      -3.28
CBAR     6792    1       3763    3784    0.      0.      1.
                         0.      0.      -3.28   0.      0.      -3.28
CBAR     6793    1       3784    3805    0.      0.      1.
                         0.      0.      -3.28   0.      0.      -3.28
CBAR     6794    1       3805    3826    0.      0.      1.
                         0.      0.      -3.28   0.      0.      -3.28
CBAR     6795    1       3826    3847    0.      0.      1.
                         0.      0.      -3.28   0.      0.      -3.28
CBAR     6796    1       3847    3868    0.      0.      1.
                         0.      0.      -3.28   0.      0.      -3.28
$ ... 48 like lines cut
$ Elements and Element Properties for region : LONGARINAS_INFERIORES
PBARL    2       1               T
         15.72   10.48   1.048   1.048
$ Pset: "LONGARINAS_INFERIORES" will be imported as: "pbarl.2"
CBAR     6821    2       1       2922    0.      0.      -1.
                         0.      0.      3.28    0.      0.      3.28
CBAR     6822    2       2922    2945    0.      0.      -1.
                         0.      0.      3.28    0.      0.      3.28
CBAR     6823    2       2945    2968    0.      0.      -1.
                         0.      0.      3.28    0.      0.      3.28
CBAR     6824    2       2968    2991    0.      0.      -1.
                         0.      0.      3.28    0.      0.      3.28
CBAR     6825    2       2991    3014    0.      0.      -1.
                         0.      0.      3.28    0.      0.      3.28
CBAR     6826    2       3014    3037    0.      0.      -1.
                         0.      0.      3.28    0.      0.      3.28
CBAR     6827    2       3037    3060    0.      0.      -1.
                         0.      0.      3.28    0.      0.      3.28
CBAR     6828    2       3060    3083    0.      0.      -1.
                         0.      0.      3.28    0.      0.      3.28
CBAR     6829    2       3083    3106    0.      0.      -1.
                         0.      0.      3.28    0.      0.      3.28
CBAR     6830    2       3106    3129    0.      0.      -1.
                         0.      0.      3.28    0.      0.      3.28
CBAR     6831    2       3129    3152    0.      0.      -1.
                         0.      0.      3.28    0.      0.      3.28
CBAR     6832    2       3152    3175    0.      0.      -1.
                         0.      0.      3.28    0.      0.      3.28
CBAR     6833    2       3175    3198    0.      0.      -1.
                         0.      0.      3.28    0.      0.      3.28
CBAR     6834    2       3198    3221    0.      0.      -1.
                         0.      0.      3.28    0.      0.      3.28
CBAR     6835    2       3221    3244    0.      0.      -1.
                         0.      0.      3.28    0.      0.      3.28
CBAR     6836    2       3244    3267    0.      0.      -1.
                         0.      0.      3.28    0.      0.      3.28
CBAR     6837    2       3267    3290    0.      0.      -1.
                         0.      0.      3.28    0.      0.      3.28
CBAR     6838    2       3290    3313    0.      0.      -1.
                         0.      0.      3.28    0.      0.      3.28
CBAR     6839    2       3313    3336    0.      0.      -1.
                         0.      0.      3.28    0.      0.      3.28
CBAR     6840    2       3336    3359    0.      0.      -1.
                         0.      0.      3.28    0.      0.      3.28
$ ... 48 like lines cut
$ Elements and Element Properties for region : NERVURAS_SUPERIORES
PBARL    3       1               T
         15.72   10.48   1.048   1.048
$ Pset: "NERVURAS_SUPERIORES" will be imported as: "pbarl.3"
CBAR     6513    3       21      42      0.      0.      1.
                         0.      0.      -3.28   0.      0.      -3.28
CBAR     6514    3       42      63      0.      0.      1.
                         0.      0.      -3.28   0.      0.      -3.28
CBAR     6515    3       63      84      0.      0.      1.
                         0.      0.      -3.28   0.      0.      -3.28
CBAR     6516    3       84      105     0.      0.      1.
                         0.      0.      -3.28   0.      0.      -3.28
CBAR     6517    3       105     126     0.      0.      1.
                         0.      0.      -3.28   0.      0.      -3.28
CBAR     6518    3       126     147     0.      0.      1.
                         0.      0.      -3.28   0.      0.      -3.28
CBAR     6519    3       147     168     0.      0.      1.
                         0.      0.      -3.28   0.      0.      -3.28
CBAR     6520    3       168     189     0.      0.      1.
                         0.      0.      -3.28   0.      0.      -3.28
CBAR     6521    3       189     210     0.      0.      1.
                         0.      0.      -3.28   0.      0.      -3.28
CBAR     6522    3       210     231     0.      0.      1.
                         0.      0.      -3.28   0.      0.      -3.28
CBAR     6523    3       231     252     0.      0.      1.
                         0.      0.      -3.28   0.      0.      -3.28
CBAR     6524    3       252     273     0.      0.      1.
                         0.      0.      -3.28   0.      0.      -3.28
CBAR     6525    3       273     294     0.      0.      1.
                         0.      0.      -3.28   0.      0.      -3.28
CBAR     6526    3       294     315     0.      0.      1.
                         0.      0.      -3.28   0.      0.      -3.28
CBAR     6527    3       315     336     0.      0.      1.
                         0.      0.      -3.28   0.      0.      -3.28
CBAR     6528    3       336     357     0.      0.      1.
                         0.      0.      -3.28   0.      0.      -3.28
CBAR     6529    3       357     378     0.      0.      1.
                         0.      0.      -3.28   0.      0.      -3.28
CBAR     6530    3       378     399     0.      0.      1.
                         0.      0.      -3.28   0.      0.      -3.28
CBAR     6531    3       399     420     0.      0.      1.
                         0.      0.      -3.28   0.      0.      -3.28
CBAR     6532    3       420     441     0.      0.      1.
                         0.      0.      -3.28   0.      0.      -3.28
$ ... 224 like lines cut
$ Elements and Element Properties for region : NERVURAS_INFERIORES
PBARL    4       1               T
         15.72   10.48   1.048   1.048
$ Pset: "NERVURAS_INFERIORES" will be imported as: "pbarl.4"
CBAR     6645    4       1       22      0.      0.      -1.
                         0.      0.      3.28    0.      0.      3.28
CBAR     6646    4       22      43      0.      0.      -1.
                         0.      0.      3.28    0.      0.      3.28
CBAR     6647    4       43      64      0.      0.      -1.
                         0.      0.      3.28    0.      0.      3.28
CBAR     6648    4       64      85      0.      0.      -1.
                         0.      0.      3.28    0.      0.      3.28
CBAR     6649    4       85      106     0.      0.      -1.
                         0.      0.      3.28    0.      0.      3.28
CBAR     6650    4       106     127     0.      0.      -1.
                         0.      0.      3.28    0.      0.      3.28
CBAR     6651    4       127     148     0.      0.      -1.
                         0.      0.      3.28    0.      0.      3.28
CBAR     6652    4       148     169     0.      0.      -1.
                         0.      0.      3.28    0.      0.      3.28
CBAR     6653    4       169     190     0.      0.      -1.
                         0.      0.      3.28    0.      0.      3.28
CBAR     6654    4       190     211     0.      0.      -1.
                         0.      0.      3.28    0.      0.      3.28
CBAR     6655    4       211     232     0.      0.      -1.
                         0.      0.      3.28    0.      0.      3.28
CBAR     6656    4       232     253     0.      0.      -1.
                         0.      0.      3.28    0.      0.      3.28
CBAR     6657    4       253     274     0.      0.      -1.
                         0.      0.      3.28    0.      0.      3.28
CBAR     6658    4       274     295     0.      0.      -1.
                         0.      0.      3.28    0.      0.      3.28
CBAR     6659    4       295     316     0.      0.      -1.
                         0.      0.      3.28    0.      0.      3.28
CBAR     6660    4       316     337     0.      0.      -1.
                         0.      0.      3.28    0.      0.      3.28
CBAR     6661    4       337     358     0.      0.      -1.
                         0.      0.      3.28    0.      0.      3.28
CBAR     6662    4       358     379     0.      0.      -1.
                         0.      0.      3.28    0.      0.      3.28
CBAR     6663    4       379     400     0.      0.      -1.
                         0.      0.      3.28    0.      0.      3.28
CBAR     6664    4       400     421     0.      0.      -1.
                         0.      0.      3.28    0.      0.      3.28
$ ... 224 like lines cut
$ Elements and Element Properties for region : STRINGERS_INFERIORES
PBARL    5       1               HAT
*        15.72           1.048           15.72           5.2399998
*
$ Pset: "STRINGERS_INFERIORES" will be imported as: "pbarl.5"
CBAR     6425    5       463     2944    0.      0.      1.
*                                        0.              0.
*        9.0600004       0.              0.              9.0600004
CBAR     6426    5       2944    2967    0.      0.      1.
*                                        0.              0.
*        9.0600004       0.              0.              9.0600004
CBAR     6427    5       2967    2990    0.      0.      1.
*                                        0.              0.
*        9.0600004       0.              0.              9.0600004
CBAR     6428    5       2990    3013    0.      0.      1.
*                                        0.              0.
*        9.0600004       0.              0.              9.0600004
CBAR     6429    5       3013    3036    0.      0.      1.
*                                        0.              0.
*        9.0600004       0.              0.              9.0600004
CBAR     6430    5       3036    3059    0.      0.      1.
*                                        0.              0.
*        9.0600004       0.              0.              9.0600004
CBAR     6431    5       3059    3082    0.      0.      1.
*                                        0.              0.
*        9.0600004       0.              0.              9.0600004
CBAR     6432    5       3082    3105    0.      0.      1.
*                                        0.              0.
*        9.0600004       0.              0.              9.0600004
CBAR     6433    5       3105    3128    0.      0.      1.
*                                        0.              0.
*        9.0600004       0.              0.              9.0600004
CBAR     6434    5       3128    3151    0.      0.      1.
*                                        0.              0.
*        9.0600004       0.              0.              9.0600004
CBAR     6435    5       3151    3174    0.      0.      1.
*                                        0.              0.
*        9.0600004       0.              0.              9.0600004
CBAR     6436    5       3174    3197    0.      0.      1.
*                                        0.              0.
*        9.0600004       0.              0.              9.0600004
CBAR     6437    5       3197    3220    0.      0.      1.
*                                        0.              0.
*        9.0600004       0.              0.              9.0600004
CBAR     6438    5       3220    3243    0.      0.      1.
*                                        0.              0.
*        9.0600004       0.              0.              9.0600004
CBAR     6439    5       3243    3266    0.      0.      1.
*                                        0.              0.
*        9.0600004       0.              0.              9.0600004
CBAR     6440    5       3266    3289    0.      0.      1.
*                                        0.              0.
*        9.0600004       0.              0.              9.0600004
CBAR     6441    5       3289    3312    0.      0.      1.
*                                        0.              0.
*        9.0600004       0.              0.              9.0600004
CBAR     6442    5       3312    3335    0.      0.      1.
*                                        0.              0.
*        9.0600004       0.              0.              9.0600004
CBAR     6443    5       3335    3358    0.      0.      1.
*                                        0.              0.
*        9.0600004       0.              0.              9.0600004
CBAR     6444    5       3358    3381    0.      0.      1.
*                                        0.              0.
*        9.0600004       0.              0.              9.0600004
$ ... 72 like lines cut
$ Elements and Element Properties for region : REVESTIMENTO
PSHELL   6       2       1.572   2               2
$ Pset: "REVESTIMENTO" will be imported as: "pshell.6"
CQUAD4   1       6       1       2       23      22
CQUAD4   2       6       2       3       24      23
CQUAD4   3       6       3       4       25      24
CQUAD4   4       6       4       5       26      25
CQUAD4   5       6       5       6       27      26
CQUAD4   6       6       6       7       28      27
CQUAD4   7       6       7       8       29      28
CQUAD4   8       6       8       9       30      29
CQUAD4   9       6       9       10      31      30
CQUAD4   10      6       10      11      32      31
CQUAD4   11      6       11      12      33      32
CQUAD4   12      6       12      13      34      33
CQUAD4   13      6       13      14      35      34
CQUAD4   14      6       14      15      36      35
CQUAD4   15      6       15      16      37      36
CQUAD4   16      6       16      17      38      37
CQUAD4   17      6       17      18      39      38
CQUAD4   18      6       18      19      40      39
CQUAD4   19      6       19      20      41      40
CQUAD4   20      6       20      21      42      41
$ ... 4952 like lines cut
$ Elements and Element Properties for region : COMPOSITO
$ Composite Property Reference Material: Laminado
$ Composite Material Description :
PCOMP    7
         3       .1      0.      YES     3       .1      45.     YES
         3       .1      -45.    YES     3       .1      90.     YES
         3       .1      90.     YES     3       .1      -45.    YES
         3       .1      45.     YES     3       .1      0.      YES
$ Pset: "COMPOSITO" will be imported as: "pcomp.7"
CQUAD4   3565    7       21      42      3935    3469
CQUAD4   3566    7       42      63      3936    3935
CQUAD4   3567    7       63      84      3937    3936
CQUAD4   3568    7       84      105     3938    3937
CQUAD4   3569    7       105     126     3939    3938
CQUAD4   3570    7       126     147     3940    3939
CQUAD4   3571    7       147     168     3941    3940
CQUAD4   3572    7       168     189     3942    3941
CQUAD4   3573    7       189     210     3943    3942
CQUAD4   3574    7       210     231     3944    3943
CQUAD4   3575    7       231     252     3945    3944
CQUAD4   3576    7       252     273     3946    3945
CQUAD4   3577    7       273     294     3947    3946
CQUAD4   3578    7       294     315     3948    3947
CQUAD4   3579    7       315     336     3949    3948
CQUAD4   3580    7       336     357     3950    3949
CQUAD4   3581    7       357     378     3951    3950
CQUAD4   3582    7       378     399     3952    3951
CQUAD4   3583    7       399     420     3953    3952
CQUAD4   3584    7       420     441     3954    3953
$ ... 1432 like lines cut
$ Referenced Material Records
$ Material Record : Al7475
$ Description of Material : Date: 14-Jul-21           Time: 15:08:11
MAT1     1      68947.57         .33
$ Material Record : Al2024
$ Description of Material : Date: 14-Jul-21           Time: 15:08:11
MAT1*    2               72394.953                       .33
*
$ Material Record : Ply
$ Description of Material : Date: 11-Nov-21           Time: 14:03:05
MAT8     3       100000. 10000.  .34     5400.   5400.   3050.
$ Nodes of the Entire Model
GRID     1               0.      0.      0.
GRID*    2                               0.              0.
*       7.85999965667725
GRID*    3                               0.              0.
*       15.7199993133545
GRID*    4                               0.              0.
*       23.5799999237061
GRID*    5                               0.              0.
*       31.4400005340576
GRID*    6                               0.              0.
*       39.2999992370605
GRID*    7                               0.              0.
*       47.1599998474121
GRID*    8                               0.              0.
*       55.0199966430664
GRID*    9                               0.              0.
*       62.8800048828125
GRID*    10                              0.              0.
*       70.7399978637695
GRID*    11                              0.              0.
*       78.5999984741211
GRID*    12                              0.              0.
*       86.4599990844727
GRID*    13                              0.              0.
*       94.3199996948242
GRID*    14                              0.              0.
*       102.179992675781
GRID*    15                              0.              0.
*       110.039993286133
GRID*    16                              0.              0.
*       117.899993896484
GRID*    17                              0.              0.
*       125.760009765625
GRID*    18                              0.              0.
*       133.619995117188
GRID*    19                              0.              0.
*       141.479995727539
GRID*    20                              0.              0.
*        149.34001159668
GRID*    21                              0.              0.
*       157.199996948242
$ ... 2268 like lines cut
GRID     1198            524.    0.      0.
GRID*    1199                            524.            0.
*       7.85999917984009
GRID*    1200                            524.            0.
*       15.7199983596802
GRID*    1201                            524.            0.
*       23.5799980163574
GRID*    1202                            524.            0.
*        31.439998626709
GRID*    1203                            524.            0.
*       39.2999992370605
GRID*    1204                            524.            0.
*       47.1599960327148
GRID*    1205                            524.            0.
*       55.0199966430664
GRID*    1206                            524.            0.
*        62.879997253418
GRID*    1207                            524.            0.
*       70.7399978637695
GRID*    1208                            524.            0.
*       78.5999984741211
GRID*    1209                            524.            0.
*       86.4599990844727
GRID*    1210                            524.            0.
*       94.3199920654297
GRID*    1211                            524.            0.
*       102.179992675781
GRID*    1212                            524.            0.
*       110.039993286133
GRID*    1213                            524.            0.
*       117.899993896484
GRID*    1214                            524.            0.
*        125.76000213623
GRID*    1215                            524.            0.
*       133.619995117188
GRID*    1216                            524.            0.
*       141.479995727539
GRID*    1217                            524.            0.
*        149.34001159668
GRID*    1218                            524.            0.
*       157.199996948242
$ ... 10500 like lines cut
$ Loads for Load Case : Default
SPCADD   2       1
LOAD     2       1.      1.      1       1.      3       1.      4
         1.      5
$ Displacement Constraints of Load Set : ENGASTE
SPC1     1       123456  1       THRU    21
SPC1     1       123456  463     483     946     966
SPC1     1       123456  1429    THRU    1449
$ Nodal Forces of Load Set : F1
FORCE*   1               1450            0               47658.629
*        0.              0.              1.
FORCE*   1               1470            0               47658.629
*        0.              0.              1.
$ Nodal Forces of Load Set : F2
FORCE    3       2878    0       15886.2 0.      0.      1.
FORCE    3       2898    0       15886.2 0.      0.      1.
$ Nodal Forces of Load Set : F3
FORCE    4       1450    0       6354.48 0.      -1.     0.
FORCE    4       2878    0       6354.48 0.      -1.     0.
$ Nodal Forces of Load Set : F4
FORCE*   5               1470            0               9531.7197
*        0.              1.              0.
FORCE*   5               2898            0               9531.7197
*        0.              1.              0.
$ Referenced Coordinate Frames
ENDDATA 69a38c3f
