$ MSC.Nastran input file created on November  24, 2021 at 19:47:39 by
$ Patran 2021.1  (Student Edition)
$ Direct Text Input for Nastran System Cell Section
$ Direct Text Input for File Management Section
$ Direct Text Input for Executive Control
$ Linear Static Analysis, Database
SOL 101
CEND
$ Direct Text Input for Global Case Control Data
TITLE = MSC.Nastran job created on 24-Nov-21 at 19:47:33
ECHO = NONE
SUBCASE 1
   SUBTITLE=Default
   SPC = 2
   LOAD = 2
   DISPLACEMENT(SORT1,REAL)=ALL
   SPCFORCES(SORT1,REAL)=ALL
   OLOAD(SORT1,REAL)=ALL
   STRAIN(SORT1,REAL,VONMISES,STRCUR,BILIN)=ALL
   STRESS(SORT1,REAL,VONMISES,BILIN)=ALL
$ Direct Text Input for this Subcase
BEGIN BULK
$ Direct Text Input for Bulk Data
MDLPRM   HDF5    0
PARAM   PRTMAXIM YES
$ Elements and Element Properties for region : LONGARINAS_SUPERIORES
PBARL    1       1               T
         15.72   10.48   1.048   1.048
$ Pset: "LONGARINAS_SUPERIORES" will be imported as: "pbarl.1"
CBAR     10081   1       23      4889    0.      0.      1.
                         0.      0.      -3.28   0.      0.      -3.28
CBAR     10082   1       4889    4912    0.      0.      1.
                         0.      0.      -3.28   0.      0.      -3.28
CBAR     10083   1       4912    4935    0.      0.      1.
                         0.      0.      -3.28   0.      0.      -3.28
CBAR     10084   1       4935    4958    0.      0.      1.
                         0.      0.      -3.28   0.      0.      -3.28
CBAR     10085   1       4958    4981    0.      0.      1.
                         0.      0.      -3.28   0.      0.      -3.28
CBAR     10086   1       4981    5004    0.      0.      1.
                         0.      0.      -3.28   0.      0.      -3.28
CBAR     10087   1       5004    5027    0.      0.      1.
                         0.      0.      -3.28   0.      0.      -3.28
CBAR     10088   1       5027    5050    0.      0.      1.
                         0.      0.      -3.28   0.      0.      -3.28
CBAR     10089   1       5050    5073    0.      0.      1.
                         0.      0.      -3.28   0.      0.      -3.28
CBAR     10090   1       5073    5096    0.      0.      1.
                         0.      0.      -3.28   0.      0.      -3.28
CBAR     10091   1       5096    5119    0.      0.      1.
                         0.      0.      -3.28   0.      0.      -3.28
CBAR     10092   1       5119    5142    0.      0.      1.
                         0.      0.      -3.28   0.      0.      -3.28
CBAR     10093   1       5142    5165    0.      0.      1.
                         0.      0.      -3.28   0.      0.      -3.28
CBAR     10094   1       5165    5188    0.      0.      1.
                         0.      0.      -3.28   0.      0.      -3.28
CBAR     10095   1       5188    5211    0.      0.      1.
                         0.      0.      -3.28   0.      0.      -3.28
CBAR     10096   1       5211    5234    0.      0.      1.
                         0.      0.      -3.28   0.      0.      -3.28
CBAR     10097   1       5234    5257    0.      0.      1.
                         0.      0.      -3.28   0.      0.      -3.28
CBAR     10098   1       5257    5280    0.      0.      1.
                         0.      0.      -3.28   0.      0.      -3.28
CBAR     10099   1       5280    5303    0.      0.      1.
                         0.      0.      -3.28   0.      0.      -3.28
CBAR     10100   1       5303    5326    0.      0.      1.
                         0.      0.      -3.28   0.      0.      -3.28
$ ... 72 like lines cut
$ Elements and Element Properties for region : LONGARINAS_INFERIORES
PBARL    2       1               T
         15.72   10.48   1.048   1.048
$ Pset: "LONGARINAS_INFERIORES" will be imported as: "pbarl.2"
CBAR     10137   2       1       4032    0.      0.      -1.
                         0.      0.      3.28    0.      0.      3.28
CBAR     10138   2       4032    4061    0.      0.      -1.
                         0.      0.      3.28    0.      0.      3.28
CBAR     10139   2       4061    4090    0.      0.      -1.
                         0.      0.      3.28    0.      0.      3.28
CBAR     10140   2       4090    4119    0.      0.      -1.
                         0.      0.      3.28    0.      0.      3.28
CBAR     10141   2       4119    4148    0.      0.      -1.
                         0.      0.      3.28    0.      0.      3.28
CBAR     10142   2       4148    4177    0.      0.      -1.
                         0.      0.      3.28    0.      0.      3.28
CBAR     10143   2       4177    4206    0.      0.      -1.
                         0.      0.      3.28    0.      0.      3.28
CBAR     10144   2       4206    4235    0.      0.      -1.
                         0.      0.      3.28    0.      0.      3.28
CBAR     10145   2       4235    4264    0.      0.      -1.
                         0.      0.      3.28    0.      0.      3.28
CBAR     10146   2       4264    4293    0.      0.      -1.
                         0.      0.      3.28    0.      0.      3.28
CBAR     10147   2       4293    4322    0.      0.      -1.
                         0.      0.      3.28    0.      0.      3.28
CBAR     10148   2       4322    4351    0.      0.      -1.
                         0.      0.      3.28    0.      0.      3.28
CBAR     10149   2       4351    4380    0.      0.      -1.
                         0.      0.      3.28    0.      0.      3.28
CBAR     10150   2       4380    4409    0.      0.      -1.
                         0.      0.      3.28    0.      0.      3.28
CBAR     10151   2       4409    4438    0.      0.      -1.
                         0.      0.      3.28    0.      0.      3.28
CBAR     10152   2       4438    4467    0.      0.      -1.
                         0.      0.      3.28    0.      0.      3.28
CBAR     10153   2       4467    4496    0.      0.      -1.
                         0.      0.      3.28    0.      0.      3.28
CBAR     10154   2       4496    4525    0.      0.      -1.
                         0.      0.      3.28    0.      0.      3.28
CBAR     10155   2       4525    4554    0.      0.      -1.
                         0.      0.      3.28    0.      0.      3.28
CBAR     10156   2       4554    4583    0.      0.      -1.
                         0.      0.      3.28    0.      0.      3.28
$ ... 72 like lines cut
$ Elements and Element Properties for region : NERVURAS_SUPERIORES
PBARL    3       1               T
         15.72   10.48   1.048   1.048
$ Pset: "NERVURAS_SUPERIORES" will be imported as: "pbarl.3"
CBAR     9745    3       23      46      0.      0.      1.
                         0.      0.      -3.28   0.      0.      -3.28
CBAR     9746    3       46      69      0.      0.      1.
                         0.      0.      -3.28   0.      0.      -3.28
CBAR     9747    3       69      92      0.      0.      1.
                         0.      0.      -3.28   0.      0.      -3.28
CBAR     9748    3       92      115     0.      0.      1.
                         0.      0.      -3.28   0.      0.      -3.28
CBAR     9749    3       115     138     0.      0.      1.
                         0.      0.      -3.28   0.      0.      -3.28
CBAR     9750    3       138     161     0.      0.      1.
                         0.      0.      -3.28   0.      0.      -3.28
CBAR     9751    3       161     184     0.      0.      1.
                         0.      0.      -3.28   0.      0.      -3.28
CBAR     9752    3       184     207     0.      0.      1.
                         0.      0.      -3.28   0.      0.      -3.28
CBAR     9753    3       207     230     0.      0.      1.
                         0.      0.      -3.28   0.      0.      -3.28
CBAR     9754    3       230     253     0.      0.      1.
                         0.      0.      -3.28   0.      0.      -3.28
CBAR     9755    3       253     276     0.      0.      1.
                         0.      0.      -3.28   0.      0.      -3.28
CBAR     9756    3       276     299     0.      0.      1.
                         0.      0.      -3.28   0.      0.      -3.28
CBAR     9757    3       299     322     0.      0.      1.
                         0.      0.      -3.28   0.      0.      -3.28
CBAR     9758    3       322     345     0.      0.      1.
                         0.      0.      -3.28   0.      0.      -3.28
CBAR     9759    3       345     368     0.      0.      1.
                         0.      0.      -3.28   0.      0.      -3.28
CBAR     9760    3       368     391     0.      0.      1.
                         0.      0.      -3.28   0.      0.      -3.28
CBAR     9761    3       391     414     0.      0.      1.
                         0.      0.      -3.28   0.      0.      -3.28
CBAR     9762    3       414     437     0.      0.      1.
                         0.      0.      -3.28   0.      0.      -3.28
CBAR     9763    3       437     460     0.      0.      1.
                         0.      0.      -3.28   0.      0.      -3.28
CBAR     9764    3       460     483     0.      0.      1.
                         0.      0.      -3.28   0.      0.      -3.28
$ ... 296 like lines cut
$ Elements and Element Properties for region : NERVURAS_INFERIORES
PBARL    4       1               T
         15.72   10.48   1.048   1.048
$ Pset: "NERVURAS_INFERIORES" will be imported as: "pbarl.4"
CBAR     9913    4       1       24      0.      0.      -1.
                         0.      0.      3.28    0.      0.      3.28
CBAR     9914    4       24      47      0.      0.      -1.
                         0.      0.      3.28    0.      0.      3.28
CBAR     9915    4       47      70      0.      0.      -1.
                         0.      0.      3.28    0.      0.      3.28
CBAR     9916    4       70      93      0.      0.      -1.
                         0.      0.      3.28    0.      0.      3.28
CBAR     9917    4       93      116     0.      0.      -1.
                         0.      0.      3.28    0.      0.      3.28
CBAR     9918    4       116     139     0.      0.      -1.
                         0.      0.      3.28    0.      0.      3.28
CBAR     9919    4       139     162     0.      0.      -1.
                         0.      0.      3.28    0.      0.      3.28
CBAR     9920    4       162     185     0.      0.      -1.
                         0.      0.      3.28    0.      0.      3.28
CBAR     9921    4       185     208     0.      0.      -1.
                         0.      0.      3.28    0.      0.      3.28
CBAR     9922    4       208     231     0.      0.      -1.
                         0.      0.      3.28    0.      0.      3.28
CBAR     9923    4       231     254     0.      0.      -1.
                         0.      0.      3.28    0.      0.      3.28
CBAR     9924    4       254     277     0.      0.      -1.
                         0.      0.      3.28    0.      0.      3.28
CBAR     9925    4       277     300     0.      0.      -1.
                         0.      0.      3.28    0.      0.      3.28
CBAR     9926    4       300     323     0.      0.      -1.
                         0.      0.      3.28    0.      0.      3.28
CBAR     9927    4       323     346     0.      0.      -1.
                         0.      0.      3.28    0.      0.      3.28
CBAR     9928    4       346     369     0.      0.      -1.
                         0.      0.      3.28    0.      0.      3.28
CBAR     9929    4       369     392     0.      0.      -1.
                         0.      0.      3.28    0.      0.      3.28
CBAR     9930    4       392     415     0.      0.      -1.
                         0.      0.      3.28    0.      0.      3.28
CBAR     9931    4       415     438     0.      0.      -1.
                         0.      0.      3.28    0.      0.      3.28
CBAR     9932    4       438     461     0.      0.      -1.
                         0.      0.      3.28    0.      0.      3.28
$ ... 296 like lines cut
$ Elements and Element Properties for region : STRINGERS_INFERIORES
PBARL    5       1               HAT
*        15.72           1.048           15.72           5.2399998
*
$ Pset: "STRINGERS_INFERIORES" will be imported as: "pbarl.5"
CBAR     9633    5       645     4060    0.      0.      1.
*                                        0.              0.
*        9.0600004       0.              0.              9.0600004
CBAR     9634    5       4060    4089    0.      0.      1.
*                                        0.              0.
*        9.0600004       0.              0.              9.0600004
CBAR     9635    5       4089    4118    0.      0.      1.
*                                        0.              0.
*        9.0600004       0.              0.              9.0600004
CBAR     9636    5       4118    4147    0.      0.      1.
*                                        0.              0.
*        9.0600004       0.              0.              9.0600004
CBAR     9637    5       4147    4176    0.      0.      1.
*                                        0.              0.
*        9.0600004       0.              0.              9.0600004
CBAR     9638    5       4176    4205    0.      0.      1.
*                                        0.              0.
*        9.0600004       0.              0.              9.0600004
CBAR     9639    5       4205    4234    0.      0.      1.
*                                        0.              0.
*        9.0600004       0.              0.              9.0600004
CBAR     9640    5       4234    4263    0.      0.      1.
*                                        0.              0.
*        9.0600004       0.              0.              9.0600004
CBAR     9641    5       4263    4292    0.      0.      1.
*                                        0.              0.
*        9.0600004       0.              0.              9.0600004
CBAR     9642    5       4292    4321    0.      0.      1.
*                                        0.              0.
*        9.0600004       0.              0.              9.0600004
CBAR     9643    5       4321    4350    0.      0.      1.
*                                        0.              0.
*        9.0600004       0.              0.              9.0600004
CBAR     9644    5       4350    4379    0.      0.      1.
*                                        0.              0.
*        9.0600004       0.              0.              9.0600004
CBAR     9645    5       4379    4408    0.      0.      1.
*                                        0.              0.
*        9.0600004       0.              0.              9.0600004
CBAR     9646    5       4408    4437    0.      0.      1.
*                                        0.              0.
*        9.0600004       0.              0.              9.0600004
CBAR     9647    5       4437    4466    0.      0.      1.
*                                        0.              0.
*        9.0600004       0.              0.              9.0600004
CBAR     9648    5       4466    4495    0.      0.      1.
*                                        0.              0.
*        9.0600004       0.              0.              9.0600004
CBAR     9649    5       4495    4524    0.      0.      1.
*                                        0.              0.
*        9.0600004       0.              0.              9.0600004
CBAR     9650    5       4524    4553    0.      0.      1.
*                                        0.              0.
*        9.0600004       0.              0.              9.0600004
CBAR     9651    5       4553    4582    0.      0.      1.
*                                        0.              0.
*        9.0600004       0.              0.              9.0600004
CBAR     9652    5       4582    4611    0.      0.      1.
*                                        0.              0.
*        9.0600004       0.              0.              9.0600004
$ ... 108 like lines cut
$ Elements and Element Properties for region : REVESTIMENTO
PSHELL   6       2       1.572   2               2
$ Pset: "REVESTIMENTO" will be imported as: "pshell.6"
CQUAD4   1       6       1       2       25      24
CQUAD4   2       6       2       3       26      25
CQUAD4   3       6       3       4       27      26
CQUAD4   4       6       4       5       28      27
CQUAD4   5       6       5       6       29      28
CQUAD4   6       6       6       7       30      29
CQUAD4   7       6       7       8       31      30
CQUAD4   8       6       8       9       32      31
CQUAD4   9       6       9       10      33      32
CQUAD4   10      6       10      11      34      33
CQUAD4   11      6       11      12      35      34
CQUAD4   12      6       12      13      36      35
CQUAD4   13      6       13      14      37      36
CQUAD4   14      6       14      15      38      37
CQUAD4   15      6       15      16      39      38
CQUAD4   16      6       16      17      40      39
CQUAD4   17      6       17      18      41      40
CQUAD4   18      6       18      19      42      41
CQUAD4   19      6       19      20      43      42
CQUAD4   20      6       20      21      44      43
$ ... 7260 like lines cut
$ Elements and Element Properties for region : COMPOSITO
$ Composite Property Reference Material: Laminado
$ Composite Material Description :
PCOMP    7
         3       .1      0.      YES     3       .1      45.     YES
         3       .1      -45.    YES     3       .1      90.     YES
         3       .1      90.     YES     3       .1      -45.    YES
         3       .1      45.     YES     3       .1      0.      YES
$ Pset: "COMPOSITO" will be imported as: "pcomp.7"
CQUAD4   5097    7       23      46      5541    4889
CQUAD4   5098    7       46      69      5542    5541
CQUAD4   5099    7       69      92      5543    5542
CQUAD4   5100    7       92      115     5544    5543
CQUAD4   5101    7       115     138     5545    5544
CQUAD4   5102    7       138     161     5546    5545
CQUAD4   5103    7       161     184     5547    5546
CQUAD4   5104    7       184     207     5548    5547
CQUAD4   5105    7       207     230     5549    5548
CQUAD4   5106    7       230     253     5550    5549
CQUAD4   5107    7       253     276     5551    5550
CQUAD4   5108    7       276     299     5552    5551
CQUAD4   5109    7       299     322     5553    5552
CQUAD4   5110    7       322     345     5554    5553
CQUAD4   5111    7       345     368     5555    5554
CQUAD4   5112    7       368     391     5556    5555
CQUAD4   5113    7       391     414     5557    5556
CQUAD4   5114    7       414     437     5558    5557
CQUAD4   5115    7       437     460     5559    5558
CQUAD4   5116    7       460     483     5560    5559
$ ... 2332 like lines cut
$ Referenced Material Records
$ Material Record : Al7475
$ Description of Material : Date: 14-Jul-21           Time: 15:08:11
MAT1     1      68947.57         .33
$ Material Record : Al2024
$ Description of Material : Date: 14-Jul-21           Time: 15:08:11
MAT1*    2               72394.953                       .33
*
$ Material Record : Ply
$ Description of Material : Date: 11-Nov-21           Time: 14:03:05
MAT8     3       100000. 10000.  .34     5400.   5400.   3050.
$ Nodes of the Entire Model
GRID     1               0.      0.      0.
GRID*    2                               0.              0.
*       7.14545440673828
GRID*    3                               0.              0.
*       14.2909088134766
GRID*    4                               0.              0.
*       21.4363632202148
GRID*    5                               0.              0.
*       28.5818176269531
GRID*    6                               0.              0.
*       35.7272720336914
GRID*    7                               0.              0.
*       42.8727264404297
GRID*    8                               0.              0.
*       50.0181770324707
GRID*    9                               0.              0.
*       57.1636352539063
GRID*    10                              0.              0.
*       64.3090896606445
GRID*    11                              0.              0.
*       71.4545516967773
GRID*    12                              0.              0.
*       78.6000061035156
GRID*    13                              0.              0.
*       85.7454605102539
GRID*    14                              0.              0.
*       92.8909072875977
GRID*    15                              0.              0.
*       100.036376953125
GRID*    16                              0.              0.
*       107.181831359863
GRID*    17                              0.              0.
*       114.327293395996
GRID*    18                              0.              0.
*       121.472747802734
GRID*    19                              0.              0.
*       128.618209838867
GRID*    20                              0.              0.
*        135.763671875
GRID*    21                              0.              0.
*       142.909118652344
$ ... 1568 like lines cut
GRID     829             262.    0.      0.
GRID*    830                             262.            0.
*       7.14545583724976
GRID*    831                             262.            0.
*       14.2909116744995
GRID*    832                             262.            0.
*       21.4363632202148
GRID*    833                             262.            0.
*        28.581823348999
GRID*    834                             262.            0.
*       35.7272682189941
GRID*    835                             262.            0.
*       42.8727264404297
GRID*    836                             262.            0.
*       50.0181541442871
GRID*    837                             262.            0.
*        57.163646697998
GRID*    838                             262.            0.
*       64.3091049194336
GRID*    839                             262.            0.
*       71.4545364379883
GRID*    840                             262.            0.
*       78.5999984741211
GRID*    841                             262.            0.
*       85.7454528808594
GRID*    842                             262.            0.
*       92.8909378051758
GRID*    843                             262.            0.
*       100.036422729492
GRID*    844                             262.            0.
*       107.181816101074
GRID*    845                             262.            0.
*       114.327301025391
GRID*    846                             262.            0.
*       121.472702026367
GRID*    847                             262.            0.
*       128.618209838867
GRID*    848                             262.            0.
*       135.763702392578
GRID*    849                             262.            0.
*       142.909088134766
$ ... 1568 like lines cut
GRID     1657            524.    0.      0.
GRID*    1658                            524.            0.
*       7.14545583724976
GRID*    1659                            524.            0.
*       14.2909116744995
GRID*    1660                            524.            0.
*       21.4363632202148
GRID*    1661                            524.            0.
*        28.581823348999
GRID*    1662                            524.            0.
*       35.7272682189941
GRID*    1663                            524.            0.
*       42.8727264404297
GRID*    1664                            524.            0.
*       50.0181617736816
GRID*    1665                            524.            0.
*        57.163646697998
GRID*    1666                            524.            0.
*       64.3090972900391
GRID*    1667                            524.            0.
*       71.4545364379883
GRID*    1668                            524.            0.
*       78.5999984741211
GRID*    1669                            524.            0.
*       85.7454528808594
GRID*    1670                            524.            0.
*       92.8909301757813
GRID*    1671                            524.            0.
*       100.036415100098
GRID*    1672                            524.            0.
*       107.181816101074
GRID*    1673                            524.            0.
*       114.327301025391
GRID*    1674                            524.            0.
*       121.472717285156
GRID*    1675                            524.            0.
*       128.618209838867
GRID*    1676                            524.            0.
*       135.763687133789
GRID*    1677                            524.            0.
*       142.909088134766
$ ... 16006 like lines cut
$ Loads for Load Case : Default
SPCADD   2       1
LOAD     2       1.      1.      1       1.      3       1.      4
         1.      5
$ Displacement Constraints of Load Set : ENGASTE
SPC1     1       123456  1       THRU    23
SPC1     1       123456  645     667     1312    1334
SPC1     1       123456  1979    THRU    2001
$ Nodal Forces of Load Set : F1
FORCE*   1               2002            0               47658.629
*        0.              0.              1.
FORCE*   1               2024            0               47658.629
*        0.              0.              1.
$ Nodal Forces of Load Set : F2
FORCE    3       3980    0       15886.2 0.      0.      1.
FORCE    3       4002    0       15886.2 0.      0.      1.
$ Nodal Forces of Load Set : F3
FORCE    4       2002    0       6354.48 0.      -1.     0.
FORCE    4       3980    0       6354.48 0.      -1.     0.
$ Nodal Forces of Load Set : F4
FORCE*   5               2024            0               9531.7197
*        0.              1.              0.
FORCE*   5               4002            0               9531.7197
*        0.              1.              0.
$ Referenced Coordinate Frames
ENDDATA e5066644
