$ MSC.Nastran input file created on November  24, 2021 at 19:57:45 by
$ Patran 2021.1  (Student Edition)
$ Direct Text Input for Nastran System Cell Section
$ Direct Text Input for File Management Section
$ Direct Text Input for Executive Control
$ Linear Static Analysis, Database
SOL 101
CEND
$ Direct Text Input for Global Case Control Data
TITLE = MSC.Nastran job created on 24-Nov-21 at 19:57:40
ECHO = NONE
SUBCASE 1
   SUBTITLE=Default
   SPC = 2
   LOAD = 2
   DISPLACEMENT(SORT1,REAL)=ALL
   SPCFORCES(SORT1,REAL)=ALL
   OLOAD(SORT1,REAL)=ALL
   STRAIN(SORT1,REAL,VONMISES,STRCUR,BILIN)=ALL
   STRESS(SORT1,REAL,VONMISES,BILIN)=ALL
$ Direct Text Input for this Subcase
BEGIN BULK
$ Direct Text Input for Bulk Data
MDLPRM   HDF5    0
PARAM   PRTMAXIM YES
$ Elements and Element Properties for region : LONGARINAS_SUPERIORES
PBARL    1       1               T
         15.72   10.48   1.048   1.048
$ Pset: "LONGARINAS_SUPERIORES" will be imported as: "pbarl.1"
CBAR     11161   1       23      5285    0.      0.      1.
                         0.      0.      -3.28   0.      0.      -3.28
CBAR     11162   1       5285    5308    0.      0.      1.
                         0.      0.      -3.28   0.      0.      -3.28
CBAR     11163   1       5308    5331    0.      0.      1.
                         0.      0.      -3.28   0.      0.      -3.28
CBAR     11164   1       5331    5354    0.      0.      1.
                         0.      0.      -3.28   0.      0.      -3.28
CBAR     11165   1       5354    5377    0.      0.      1.
                         0.      0.      -3.28   0.      0.      -3.28
CBAR     11166   1       5377    5400    0.      0.      1.
                         0.      0.      -3.28   0.      0.      -3.28
CBAR     11167   1       5400    5423    0.      0.      1.
                         0.      0.      -3.28   0.      0.      -3.28
CBAR     11168   1       5423    5446    0.      0.      1.
                         0.      0.      -3.28   0.      0.      -3.28
CBAR     11169   1       5446    5469    0.      0.      1.
                         0.      0.      -3.28   0.      0.      -3.28
CBAR     11170   1       5469    5492    0.      0.      1.
                         0.      0.      -3.28   0.      0.      -3.28
CBAR     11171   1       5492    5515    0.      0.      1.
                         0.      0.      -3.28   0.      0.      -3.28
CBAR     11172   1       5515    5538    0.      0.      1.
                         0.      0.      -3.28   0.      0.      -3.28
CBAR     11173   1       5538    5561    0.      0.      1.
                         0.      0.      -3.28   0.      0.      -3.28
CBAR     11174   1       5561    5584    0.      0.      1.
                         0.      0.      -3.28   0.      0.      -3.28
CBAR     11175   1       5584    5607    0.      0.      1.
                         0.      0.      -3.28   0.      0.      -3.28
CBAR     11176   1       5607    5630    0.      0.      1.
                         0.      0.      -3.28   0.      0.      -3.28
CBAR     11177   1       5630    5653    0.      0.      1.
                         0.      0.      -3.28   0.      0.      -3.28
CBAR     11178   1       5653    5676    0.      0.      1.
                         0.      0.      -3.28   0.      0.      -3.28
CBAR     11179   1       5676    5699    0.      0.      1.
                         0.      0.      -3.28   0.      0.      -3.28
CBAR     11180   1       5699    5722    0.      0.      1.
                         0.      0.      -3.28   0.      0.      -3.28
$ ... 80 like lines cut
$ Elements and Element Properties for region : LONGARINAS_INFERIORES
PBARL    2       1               T
         15.72   10.48   1.048   1.048
$ Pset: "LONGARINAS_INFERIORES" will be imported as: "pbarl.2"
CBAR     11221   2       1       4310    0.      0.      -1.
                         0.      0.      3.28    0.      0.      3.28
CBAR     11222   2       4310    4341    0.      0.      -1.
                         0.      0.      3.28    0.      0.      3.28
CBAR     11223   2       4341    4372    0.      0.      -1.
                         0.      0.      3.28    0.      0.      3.28
CBAR     11224   2       4372    4403    0.      0.      -1.
                         0.      0.      3.28    0.      0.      3.28
CBAR     11225   2       4403    4434    0.      0.      -1.
                         0.      0.      3.28    0.      0.      3.28
CBAR     11226   2       4434    4465    0.      0.      -1.
                         0.      0.      3.28    0.      0.      3.28
CBAR     11227   2       4465    4496    0.      0.      -1.
                         0.      0.      3.28    0.      0.      3.28
CBAR     11228   2       4496    4527    0.      0.      -1.
                         0.      0.      3.28    0.      0.      3.28
CBAR     11229   2       4527    4558    0.      0.      -1.
                         0.      0.      3.28    0.      0.      3.28
CBAR     11230   2       4558    4589    0.      0.      -1.
                         0.      0.      3.28    0.      0.      3.28
CBAR     11231   2       4589    4620    0.      0.      -1.
                         0.      0.      3.28    0.      0.      3.28
CBAR     11232   2       4620    4651    0.      0.      -1.
                         0.      0.      3.28    0.      0.      3.28
CBAR     11233   2       4651    4682    0.      0.      -1.
                         0.      0.      3.28    0.      0.      3.28
CBAR     11234   2       4682    4713    0.      0.      -1.
                         0.      0.      3.28    0.      0.      3.28
CBAR     11235   2       4713    4744    0.      0.      -1.
                         0.      0.      3.28    0.      0.      3.28
CBAR     11236   2       4744    4775    0.      0.      -1.
                         0.      0.      3.28    0.      0.      3.28
CBAR     11237   2       4775    4806    0.      0.      -1.
                         0.      0.      3.28    0.      0.      3.28
CBAR     11238   2       4806    4837    0.      0.      -1.
                         0.      0.      3.28    0.      0.      3.28
CBAR     11239   2       4837    4868    0.      0.      -1.
                         0.      0.      3.28    0.      0.      3.28
CBAR     11240   2       4868    4899    0.      0.      -1.
                         0.      0.      3.28    0.      0.      3.28
$ ... 80 like lines cut
$ Elements and Element Properties for region : NERVURAS_SUPERIORES
PBARL    3       1               T
         15.72   10.48   1.048   1.048
$ Pset: "NERVURAS_SUPERIORES" will be imported as: "pbarl.3"
CBAR     10801   3       23      46      0.      0.      1.
                         0.      0.      -3.28   0.      0.      -3.28
CBAR     10802   3       46      69      0.      0.      1.
                         0.      0.      -3.28   0.      0.      -3.28
CBAR     10803   3       69      92      0.      0.      1.
                         0.      0.      -3.28   0.      0.      -3.28
CBAR     10804   3       92      115     0.      0.      1.
                         0.      0.      -3.28   0.      0.      -3.28
CBAR     10805   3       115     138     0.      0.      1.
                         0.      0.      -3.28   0.      0.      -3.28
CBAR     10806   3       138     161     0.      0.      1.
                         0.      0.      -3.28   0.      0.      -3.28
CBAR     10807   3       161     184     0.      0.      1.
                         0.      0.      -3.28   0.      0.      -3.28
CBAR     10808   3       184     207     0.      0.      1.
                         0.      0.      -3.28   0.      0.      -3.28
CBAR     10809   3       207     230     0.      0.      1.
                         0.      0.      -3.28   0.      0.      -3.28
CBAR     10810   3       230     253     0.      0.      1.
                         0.      0.      -3.28   0.      0.      -3.28
CBAR     10811   3       253     276     0.      0.      1.
                         0.      0.      -3.28   0.      0.      -3.28
CBAR     10812   3       276     299     0.      0.      1.
                         0.      0.      -3.28   0.      0.      -3.28
CBAR     10813   3       299     322     0.      0.      1.
                         0.      0.      -3.28   0.      0.      -3.28
CBAR     10814   3       322     345     0.      0.      1.
                         0.      0.      -3.28   0.      0.      -3.28
CBAR     10815   3       345     368     0.      0.      1.
                         0.      0.      -3.28   0.      0.      -3.28
CBAR     10816   3       368     391     0.      0.      1.
                         0.      0.      -3.28   0.      0.      -3.28
CBAR     10817   3       391     414     0.      0.      1.
                         0.      0.      -3.28   0.      0.      -3.28
CBAR     10818   3       414     437     0.      0.      1.
                         0.      0.      -3.28   0.      0.      -3.28
CBAR     10819   3       437     460     0.      0.      1.
                         0.      0.      -3.28   0.      0.      -3.28
CBAR     10820   3       460     483     0.      0.      1.
                         0.      0.      -3.28   0.      0.      -3.28
$ ... 320 like lines cut
$ Elements and Element Properties for region : NERVURAS_INFERIORES
PBARL    4       1               T
         15.72   10.48   1.048   1.048
$ Pset: "NERVURAS_INFERIORES" will be imported as: "pbarl.4"
CBAR     10981   4       1       24      0.      0.      -1.
                         0.      0.      3.28    0.      0.      3.28
CBAR     10982   4       24      47      0.      0.      -1.
                         0.      0.      3.28    0.      0.      3.28
CBAR     10983   4       47      70      0.      0.      -1.
                         0.      0.      3.28    0.      0.      3.28
CBAR     10984   4       70      93      0.      0.      -1.
                         0.      0.      3.28    0.      0.      3.28
CBAR     10985   4       93      116     0.      0.      -1.
                         0.      0.      3.28    0.      0.      3.28
CBAR     10986   4       116     139     0.      0.      -1.
                         0.      0.      3.28    0.      0.      3.28
CBAR     10987   4       139     162     0.      0.      -1.
                         0.      0.      3.28    0.      0.      3.28
CBAR     10988   4       162     185     0.      0.      -1.
                         0.      0.      3.28    0.      0.      3.28
CBAR     10989   4       185     208     0.      0.      -1.
                         0.      0.      3.28    0.      0.      3.28
CBAR     10990   4       208     231     0.      0.      -1.
                         0.      0.      3.28    0.      0.      3.28
CBAR     10991   4       231     254     0.      0.      -1.
                         0.      0.      3.28    0.      0.      3.28
CBAR     10992   4       254     277     0.      0.      -1.
                         0.      0.      3.28    0.      0.      3.28
CBAR     10993   4       277     300     0.      0.      -1.
                         0.      0.      3.28    0.      0.      3.28
CBAR     10994   4       300     323     0.      0.      -1.
                         0.      0.      3.28    0.      0.      3.28
CBAR     10995   4       323     346     0.      0.      -1.
                         0.      0.      3.28    0.      0.      3.28
CBAR     10996   4       346     369     0.      0.      -1.
                         0.      0.      3.28    0.      0.      3.28
CBAR     10997   4       369     392     0.      0.      -1.
                         0.      0.      3.28    0.      0.      3.28
CBAR     10998   4       392     415     0.      0.      -1.
                         0.      0.      3.28    0.      0.      3.28
CBAR     10999   4       415     438     0.      0.      -1.
                         0.      0.      3.28    0.      0.      3.28
CBAR     11000   4       438     461     0.      0.      -1.
                         0.      0.      3.28    0.      0.      3.28
$ ... 320 like lines cut
$ Elements and Element Properties for region : STRINGERS_INFERIORES
PBARL    5       1               HAT
*        15.72           1.048           15.72           5.2399998
*
$ Pset: "STRINGERS_INFERIORES" will be imported as: "pbarl.5"
CBAR     10681   5       691     4340    0.      0.      1.
*                                        0.              0.
*        9.0600004       0.              0.              9.0600004
CBAR     10682   5       4340    4371    0.      0.      1.
*                                        0.              0.
*        9.0600004       0.              0.              9.0600004
CBAR     10683   5       4371    4402    0.      0.      1.
*                                        0.              0.
*        9.0600004       0.              0.              9.0600004
CBAR     10684   5       4402    4433    0.      0.      1.
*                                        0.              0.
*        9.0600004       0.              0.              9.0600004
CBAR     10685   5       4433    4464    0.      0.      1.
*                                        0.              0.
*        9.0600004       0.              0.              9.0600004
CBAR     10686   5       4464    4495    0.      0.      1.
*                                        0.              0.
*        9.0600004       0.              0.              9.0600004
CBAR     10687   5       4495    4526    0.      0.      1.
*                                        0.              0.
*        9.0600004       0.              0.              9.0600004
CBAR     10688   5       4526    4557    0.      0.      1.
*                                        0.              0.
*        9.0600004       0.              0.              9.0600004
CBAR     10689   5       4557    4588    0.      0.      1.
*                                        0.              0.
*        9.0600004       0.              0.              9.0600004
CBAR     10690   5       4588    4619    0.      0.      1.
*                                        0.              0.
*        9.0600004       0.              0.              9.0600004
CBAR     10691   5       4619    4650    0.      0.      1.
*                                        0.              0.
*        9.0600004       0.              0.              9.0600004
CBAR     10692   5       4650    4681    0.      0.      1.
*                                        0.              0.
*        9.0600004       0.              0.              9.0600004
CBAR     10693   5       4681    4712    0.      0.      1.
*                                        0.              0.
*        9.0600004       0.              0.              9.0600004
CBAR     10694   5       4712    4743    0.      0.      1.
*                                        0.              0.
*        9.0600004       0.              0.              9.0600004
CBAR     10695   5       4743    4774    0.      0.      1.
*                                        0.              0.
*        9.0600004       0.              0.              9.0600004
CBAR     10696   5       4774    4805    0.      0.      1.
*                                        0.              0.
*        9.0600004       0.              0.              9.0600004
CBAR     10697   5       4805    4836    0.      0.      1.
*                                        0.              0.
*        9.0600004       0.              0.              9.0600004
CBAR     10698   5       4836    4867    0.      0.      1.
*                                        0.              0.
*        9.0600004       0.              0.              9.0600004
CBAR     10699   5       4867    4898    0.      0.      1.
*                                        0.              0.
*        9.0600004       0.              0.              9.0600004
CBAR     10700   5       4898    4929    0.      0.      1.
*                                        0.              0.
*        9.0600004       0.              0.              9.0600004
$ ... 120 like lines cut
$ Elements and Element Properties for region : REVESTIMENTO
PSHELL   6       2       1.572   2               2
$ Pset: "REVESTIMENTO" will be imported as: "pshell.6"
CQUAD4   1       6       1       2       25      24
CQUAD4   2       6       2       3       26      25
CQUAD4   3       6       3       4       27      26
CQUAD4   4       6       4       5       28      27
CQUAD4   5       6       5       6       29      28
CQUAD4   6       6       6       7       30      29
CQUAD4   7       6       7       8       31      30
CQUAD4   8       6       8       9       32      31
CQUAD4   9       6       9       10      33      32
CQUAD4   10      6       10      11      34      33
CQUAD4   11      6       11      12      35      34
CQUAD4   12      6       12      13      36      35
CQUAD4   13      6       13      14      37      36
CQUAD4   14      6       14      15      38      37
CQUAD4   15      6       15      16      39      38
CQUAD4   16      6       16      17      40      39
CQUAD4   17      6       17      18      41      40
CQUAD4   18      6       18      19      42      41
CQUAD4   19      6       19      20      43      42
CQUAD4   20      6       20      21      44      43
$ ... 7960 like lines cut
$ Elements and Element Properties for region : COMPOSITO
$ Composite Property Reference Material: Laminado
$ Composite Material Description :
PCOMP    7
         3       .1      0.      YES     3       .1      45.     YES
         3       .1      -45.    YES     3       .1      90.     YES
         3       .1      90.     YES     3       .1      -45.    YES
         3       .1      45.     YES     3       .1      0.      YES
$ Pset: "COMPOSITO" will be imported as: "pcomp.7"
CQUAD4   5521    7       23      46      5985    5285
CQUAD4   5522    7       46      69      5986    5985
CQUAD4   5523    7       69      92      5987    5986
CQUAD4   5524    7       92      115     5988    5987
CQUAD4   5525    7       115     138     5989    5988
CQUAD4   5526    7       138     161     5990    5989
CQUAD4   5527    7       161     184     5991    5990
CQUAD4   5528    7       184     207     5992    5991
CQUAD4   5529    7       207     230     5993    5992
CQUAD4   5530    7       230     253     5994    5993
CQUAD4   5531    7       253     276     5995    5994
CQUAD4   5532    7       276     299     5996    5995
CQUAD4   5533    7       299     322     5997    5996
CQUAD4   5534    7       322     345     5998    5997
CQUAD4   5535    7       345     368     5999    5998
CQUAD4   5536    7       368     391     6000    5999
CQUAD4   5537    7       391     414     6001    6000
CQUAD4   5538    7       414     437     6002    6001
CQUAD4   5539    7       437     460     6003    6002
CQUAD4   5540    7       460     483     6004    6003
$ ... 2680 like lines cut
$ Referenced Material Records
$ Material Record : Al7475
$ Description of Material : Date: 14-Jul-21           Time: 15:08:11
MAT1     1      68947.57         .33
$ Material Record : Al2024
$ Description of Material : Date: 14-Jul-21           Time: 15:08:11
MAT1*    2               72394.953                       .33
*
$ Material Record : Ply
$ Description of Material : Date: 11-Nov-21           Time: 14:03:05
MAT8     3       100000. 10000.  .34     5400.   5400.   3050.
$ Nodes of the Entire Model
GRID     1               0.      0.      0.
GRID*    2                               0.              0.
*       7.14545440673828
GRID*    3                               0.              0.
*       14.2909088134766
GRID*    4                               0.              0.
*       21.4363632202148
GRID*    5                               0.              0.
*       28.5818176269531
GRID*    6                               0.              0.
*       35.7272720336914
GRID*    7                               0.              0.
*       42.8727264404297
GRID*    8                               0.              0.
*       50.0181770324707
GRID*    9                               0.              0.
*       57.1636352539063
GRID*    10                              0.              0.
*       64.3090896606445
GRID*    11                              0.              0.
*       71.4545516967773
GRID*    12                              0.              0.
*       78.6000061035156
GRID*    13                              0.              0.
*       85.7454605102539
GRID*    14                              0.              0.
*       92.8909072875977
GRID*    15                              0.              0.
*       100.036376953125
GRID*    16                              0.              0.
*       107.181831359863
GRID*    17                              0.              0.
*       114.327293395996
GRID*    18                              0.              0.
*       121.472747802734
GRID*    19                              0.              0.
*       128.618209838867
GRID*    20                              0.              0.
*        135.763671875
GRID*    21                              0.              0.
*       142.909118652344
$ ... 3408 like lines cut
GRID     1772            524.    0.      0.
GRID*    1773                            524.            0.
*       7.14545583724976
GRID*    1774                            524.            0.
*       14.2909116744995
GRID*    1775                            524.            0.
*       21.4363632202148
GRID*    1776                            524.            0.
*        28.581823348999
GRID*    1777                            524.            0.
*       35.7272682189941
GRID*    1778                            524.            0.
*       42.8727264404297
GRID*    1779                            524.            0.
*       50.0181617736816
GRID*    1780                            524.            0.
*        57.163646697998
GRID*    1781                            524.            0.
*       64.3090972900391
GRID*    1782                            524.            0.
*       71.4545364379883
GRID*    1783                            524.            0.
*       78.5999984741211
GRID*    1784                            524.            0.
*       85.7454528808594
GRID*    1785                            524.            0.
*       92.8909301757813
GRID*    1786                            524.            0.
*       100.036415100098
GRID*    1787                            524.            0.
*       107.181816101074
GRID*    1788                            524.            0.
*       114.327301025391
GRID*    1789                            524.            0.
*       121.472717285156
GRID*    1790                            524.            0.
*       128.618209838867
GRID*    1791                            524.            0.
*       135.763687133789
GRID*    1792                            524.            0.
*       142.909088134766
$ ... 17872 like lines cut
$ Loads for Load Case : Default
SPCADD   2       1
LOAD     2       1.      1.      1       1.      3       1.      4
         1.      5
$ Displacement Constraints of Load Set : ENGASTE
SPC1     1       123456  1       THRU    23
SPC1     1       123456  691     713     1404    1426
SPC1     1       123456  2117    THRU    2139
$ Nodal Forces of Load Set : F1
FORCE*   1               2140            0               47658.629
*        0.              0.              1.
FORCE*   1               2162            0               47658.629
*        0.              0.              1.
$ Nodal Forces of Load Set : F2
FORCE    3       4256    0       15886.2 0.      0.      1.
FORCE    3       4278    0       15886.2 0.      0.      1.
$ Nodal Forces of Load Set : F3
FORCE    4       2140    0       6354.48 0.      -1.     0.
FORCE    4       4256    0       6354.48 0.      -1.     0.
$ Nodal Forces of Load Set : F4
FORCE*   5               2162            0               9531.7197
*        0.              1.              0.
FORCE*   5               4278            0               9531.7197
*        0.              1.              0.
$ Referenced Coordinate Frames
ENDDATA 15510695
