$ MSC.Nastran input file created on November  24, 2021 at 20:35:36 by
$ Patran 2021.1  (Student Edition)
$ Direct Text Input for Nastran System Cell Section
$ Direct Text Input for File Management Section
$ Direct Text Input for Executive Control
$ Linear Static Analysis, Database
SOL 101
CEND
$ Direct Text Input for Global Case Control Data
TITLE = MSC.Nastran job created on 24-Nov-21 at 20:35:31
ECHO = NONE
SUBCASE 1
   SUBTITLE=Default
   SPC = 2
   LOAD = 2
   DISPLACEMENT(SORT1,REAL)=ALL
   SPCFORCES(SORT1,REAL)=ALL
   OLOAD(SORT1,REAL)=ALL
   STRAIN(SORT1,REAL,VONMISES,STRCUR,BILIN)=ALL
   STRESS(SORT1,REAL,VONMISES,BILIN)=ALL
$ Direct Text Input for this Subcase
BEGIN BULK
$ Direct Text Input for Bulk Data
MDLPRM   HDF5    0
PARAM   PRTMAXIM YES
$ Elements and Element Properties for region : LONGARINAS_SUPERIORES
PBARL    1       1               T
         15.72   10.48   1.048   1.048
$ Pset: "LONGARINAS_SUPERIORES" will be imported as: "pbarl.1"
CBAR     14009   1       25      6525    0.      0.      1.
                         0.      0.      -3.28   0.      0.      -3.28
CBAR     14010   1       6525    6550    0.      0.      1.
                         0.      0.      -3.28   0.      0.      -3.28
CBAR     14011   1       6550    6575    0.      0.      1.
                         0.      0.      -3.28   0.      0.      -3.28
CBAR     14012   1       6575    6600    0.      0.      1.
                         0.      0.      -3.28   0.      0.      -3.28
CBAR     14013   1       6600    6625    0.      0.      1.
                         0.      0.      -3.28   0.      0.      -3.28
CBAR     14014   1       6625    6650    0.      0.      1.
                         0.      0.      -3.28   0.      0.      -3.28
CBAR     14015   1       6650    6675    0.      0.      1.
                         0.      0.      -3.28   0.      0.      -3.28
CBAR     14016   1       6675    6700    0.      0.      1.
                         0.      0.      -3.28   0.      0.      -3.28
CBAR     14017   1       6700    6725    0.      0.      1.
                         0.      0.      -3.28   0.      0.      -3.28
CBAR     14018   1       6725    6750    0.      0.      1.
                         0.      0.      -3.28   0.      0.      -3.28
CBAR     14019   1       6750    6775    0.      0.      1.
                         0.      0.      -3.28   0.      0.      -3.28
CBAR     14020   1       6775    6800    0.      0.      1.
                         0.      0.      -3.28   0.      0.      -3.28
CBAR     14021   1       6800    6825    0.      0.      1.
                         0.      0.      -3.28   0.      0.      -3.28
CBAR     14022   1       6825    6850    0.      0.      1.
                         0.      0.      -3.28   0.      0.      -3.28
CBAR     14023   1       6850    6875    0.      0.      1.
                         0.      0.      -3.28   0.      0.      -3.28
CBAR     14024   1       6875    6900    0.      0.      1.
                         0.      0.      -3.28   0.      0.      -3.28
CBAR     14025   1       6900    6925    0.      0.      1.
                         0.      0.      -3.28   0.      0.      -3.28
CBAR     14026   1       6925    6950    0.      0.      1.
                         0.      0.      -3.28   0.      0.      -3.28
CBAR     14027   1       6950    6975    0.      0.      1.
                         0.      0.      -3.28   0.      0.      -3.28
CBAR     14028   1       6975    7000    0.      0.      1.
                         0.      0.      -3.28   0.      0.      -3.28
$ ... 96 like lines cut
$ Elements and Element Properties for region : LONGARINAS_INFERIORES
PBARL    2       1               T
         15.72   10.48   1.048   1.048
$ Pset: "LONGARINAS_INFERIORES" will be imported as: "pbarl.2"
CBAR     14077   2       1       5286    0.      0.      -1.
                         0.      0.      3.28    0.      0.      3.28
CBAR     14078   2       5286    5321    0.      0.      -1.
                         0.      0.      3.28    0.      0.      3.28
CBAR     14079   2       5321    5356    0.      0.      -1.
                         0.      0.      3.28    0.      0.      3.28
CBAR     14080   2       5356    5391    0.      0.      -1.
                         0.      0.      3.28    0.      0.      3.28
CBAR     14081   2       5391    5426    0.      0.      -1.
                         0.      0.      3.28    0.      0.      3.28
CBAR     14082   2       5426    5461    0.      0.      -1.
                         0.      0.      3.28    0.      0.      3.28
CBAR     14083   2       5461    5496    0.      0.      -1.
                         0.      0.      3.28    0.      0.      3.28
CBAR     14084   2       5496    5531    0.      0.      -1.
                         0.      0.      3.28    0.      0.      3.28
CBAR     14085   2       5531    5566    0.      0.      -1.
                         0.      0.      3.28    0.      0.      3.28
CBAR     14086   2       5566    5601    0.      0.      -1.
                         0.      0.      3.28    0.      0.      3.28
CBAR     14087   2       5601    5636    0.      0.      -1.
                         0.      0.      3.28    0.      0.      3.28
CBAR     14088   2       5636    5671    0.      0.      -1.
                         0.      0.      3.28    0.      0.      3.28
CBAR     14089   2       5671    5706    0.      0.      -1.
                         0.      0.      3.28    0.      0.      3.28
CBAR     14090   2       5706    5741    0.      0.      -1.
                         0.      0.      3.28    0.      0.      3.28
CBAR     14091   2       5741    5776    0.      0.      -1.
                         0.      0.      3.28    0.      0.      3.28
CBAR     14092   2       5776    5811    0.      0.      -1.
                         0.      0.      3.28    0.      0.      3.28
CBAR     14093   2       5811    5846    0.      0.      -1.
                         0.      0.      3.28    0.      0.      3.28
CBAR     14094   2       5846    5881    0.      0.      -1.
                         0.      0.      3.28    0.      0.      3.28
CBAR     14095   2       5881    5916    0.      0.      -1.
                         0.      0.      3.28    0.      0.      3.28
CBAR     14096   2       5916    5951    0.      0.      -1.
                         0.      0.      3.28    0.      0.      3.28
$ ... 96 like lines cut
$ Elements and Element Properties for region : NERVURAS_SUPERIORES
PBARL    3       1               T
         15.72   10.48   1.048   1.048
$ Pset: "NERVURAS_SUPERIORES" will be imported as: "pbarl.3"
CBAR     13601   3       25      50      0.      0.      1.
                         0.      0.      -3.28   0.      0.      -3.28
CBAR     13602   3       50      75      0.      0.      1.
                         0.      0.      -3.28   0.      0.      -3.28
CBAR     13603   3       75      100     0.      0.      1.
                         0.      0.      -3.28   0.      0.      -3.28
CBAR     13604   3       100     125     0.      0.      1.
                         0.      0.      -3.28   0.      0.      -3.28
CBAR     13605   3       125     150     0.      0.      1.
                         0.      0.      -3.28   0.      0.      -3.28
CBAR     13606   3       150     175     0.      0.      1.
                         0.      0.      -3.28   0.      0.      -3.28
CBAR     13607   3       175     200     0.      0.      1.
                         0.      0.      -3.28   0.      0.      -3.28
CBAR     13608   3       200     225     0.      0.      1.
                         0.      0.      -3.28   0.      0.      -3.28
CBAR     13609   3       225     250     0.      0.      1.
                         0.      0.      -3.28   0.      0.      -3.28
CBAR     13610   3       250     275     0.      0.      1.
                         0.      0.      -3.28   0.      0.      -3.28
CBAR     13611   3       275     300     0.      0.      1.
                         0.      0.      -3.28   0.      0.      -3.28
CBAR     13612   3       300     325     0.      0.      1.
                         0.      0.      -3.28   0.      0.      -3.28
CBAR     13613   3       325     350     0.      0.      1.
                         0.      0.      -3.28   0.      0.      -3.28
CBAR     13614   3       350     375     0.      0.      1.
                         0.      0.      -3.28   0.      0.      -3.28
CBAR     13615   3       375     400     0.      0.      1.
                         0.      0.      -3.28   0.      0.      -3.28
CBAR     13616   3       400     425     0.      0.      1.
                         0.      0.      -3.28   0.      0.      -3.28
CBAR     13617   3       425     450     0.      0.      1.
                         0.      0.      -3.28   0.      0.      -3.28
CBAR     13618   3       450     475     0.      0.      1.
                         0.      0.      -3.28   0.      0.      -3.28
CBAR     13619   3       475     500     0.      0.      1.
                         0.      0.      -3.28   0.      0.      -3.28
CBAR     13620   3       500     525     0.      0.      1.
                         0.      0.      -3.28   0.      0.      -3.28
$ ... 368 like lines cut
$ Elements and Element Properties for region : NERVURAS_INFERIORES
PBARL    4       1               T
         15.72   10.48   1.048   1.048
$ Pset: "NERVURAS_INFERIORES" will be imported as: "pbarl.4"
CBAR     13805   4       1       26      0.      0.      -1.
                         0.      0.      3.28    0.      0.      3.28
CBAR     13806   4       26      51      0.      0.      -1.
                         0.      0.      3.28    0.      0.      3.28
CBAR     13807   4       51      76      0.      0.      -1.
                         0.      0.      3.28    0.      0.      3.28
CBAR     13808   4       76      101     0.      0.      -1.
                         0.      0.      3.28    0.      0.      3.28
CBAR     13809   4       101     126     0.      0.      -1.
                         0.      0.      3.28    0.      0.      3.28
CBAR     13810   4       126     151     0.      0.      -1.
                         0.      0.      3.28    0.      0.      3.28
CBAR     13811   4       151     176     0.      0.      -1.
                         0.      0.      3.28    0.      0.      3.28
CBAR     13812   4       176     201     0.      0.      -1.
                         0.      0.      3.28    0.      0.      3.28
CBAR     13813   4       201     226     0.      0.      -1.
                         0.      0.      3.28    0.      0.      3.28
CBAR     13814   4       226     251     0.      0.      -1.
                         0.      0.      3.28    0.      0.      3.28
CBAR     13815   4       251     276     0.      0.      -1.
                         0.      0.      3.28    0.      0.      3.28
CBAR     13816   4       276     301     0.      0.      -1.
                         0.      0.      3.28    0.      0.      3.28
CBAR     13817   4       301     326     0.      0.      -1.
                         0.      0.      3.28    0.      0.      3.28
CBAR     13818   4       326     351     0.      0.      -1.
                         0.      0.      3.28    0.      0.      3.28
CBAR     13819   4       351     376     0.      0.      -1.
                         0.      0.      3.28    0.      0.      3.28
CBAR     13820   4       376     401     0.      0.      -1.
                         0.      0.      3.28    0.      0.      3.28
CBAR     13821   4       401     426     0.      0.      -1.
                         0.      0.      3.28    0.      0.      3.28
CBAR     13822   4       426     451     0.      0.      -1.
                         0.      0.      3.28    0.      0.      3.28
CBAR     13823   4       451     476     0.      0.      -1.
                         0.      0.      3.28    0.      0.      3.28
CBAR     13824   4       476     501     0.      0.      -1.
                         0.      0.      3.28    0.      0.      3.28
$ ... 368 like lines cut
$ Elements and Element Properties for region : STRINGERS_INFERIORES
PBARL    5       1               HAT
*        15.72           1.048           15.72           5.2399998
*
$ Pset: "STRINGERS_INFERIORES" will be imported as: "pbarl.5"
CBAR     13465   5       851     5320    0.      0.      1.
*                                        0.              0.
*        9.0600004       0.              0.              9.0600004
CBAR     13466   5       5320    5355    0.      0.      1.
*                                        0.              0.
*        9.0600004       0.              0.              9.0600004
CBAR     13467   5       5355    5390    0.      0.      1.
*                                        0.              0.
*        9.0600004       0.              0.              9.0600004
CBAR     13468   5       5390    5425    0.      0.      1.
*                                        0.              0.
*        9.0600004       0.              0.              9.0600004
CBAR     13469   5       5425    5460    0.      0.      1.
*                                        0.              0.
*        9.0600004       0.              0.              9.0600004
CBAR     13470   5       5460    5495    0.      0.      1.
*                                        0.              0.
*        9.0600004       0.              0.              9.0600004
CBAR     13471   5       5495    5530    0.      0.      1.
*                                        0.              0.
*        9.0600004       0.              0.              9.0600004
CBAR     13472   5       5530    5565    0.      0.      1.
*                                        0.              0.
*        9.0600004       0.              0.              9.0600004
CBAR     13473   5       5565    5600    0.      0.      1.
*                                        0.              0.
*        9.0600004       0.              0.              9.0600004
CBAR     13474   5       5600    5635    0.      0.      1.
*                                        0.              0.
*        9.0600004       0.              0.              9.0600004
CBAR     13475   5       5635    5670    0.      0.      1.
*                                        0.              0.
*        9.0600004       0.              0.              9.0600004
CBAR     13476   5       5670    5705    0.      0.      1.
*                                        0.              0.
*        9.0600004       0.              0.              9.0600004
CBAR     13477   5       5705    5740    0.      0.      1.
*                                        0.              0.
*        9.0600004       0.              0.              9.0600004
CBAR     13478   5       5740    5775    0.      0.      1.
*                                        0.              0.
*        9.0600004       0.              0.              9.0600004
CBAR     13479   5       5775    5810    0.      0.      1.
*                                        0.              0.
*        9.0600004       0.              0.              9.0600004
CBAR     13480   5       5810    5845    0.      0.      1.
*                                        0.              0.
*        9.0600004       0.              0.              9.0600004
CBAR     13481   5       5845    5880    0.      0.      1.
*                                        0.              0.
*        9.0600004       0.              0.              9.0600004
CBAR     13482   5       5880    5915    0.      0.      1.
*                                        0.              0.
*        9.0600004       0.              0.              9.0600004
CBAR     13483   5       5915    5950    0.      0.      1.
*                                        0.              0.
*        9.0600004       0.              0.              9.0600004
CBAR     13484   5       5950    5985    0.      0.      1.
*                                        0.              0.
*        9.0600004       0.              0.              9.0600004
$ ... 144 like lines cut
$ Elements and Element Properties for region : REVESTIMENTO
PSHELL   6       2       1.572   2               2
$ Pset: "REVESTIMENTO" will be imported as: "pshell.6"
CQUAD4   1       6       1       2       27      26
CQUAD4   2       6       2       3       28      27
CQUAD4   3       6       3       4       29      28
CQUAD4   4       6       4       5       30      29
CQUAD4   5       6       5       6       31      30
CQUAD4   6       6       6       7       32      31
CQUAD4   7       6       7       8       33      32
CQUAD4   8       6       8       9       34      33
CQUAD4   9       6       9       10      35      34
CQUAD4   10      6       10      11      36      35
CQUAD4   11      6       11      12      37      36
CQUAD4   12      6       12      13      38      37
CQUAD4   13      6       13      14      39      38
CQUAD4   14      6       14      15      40      39
CQUAD4   15      6       15      16      41      40
CQUAD4   16      6       16      17      42      41
CQUAD4   17      6       17      18      43      42
CQUAD4   18      6       18      19      44      43
CQUAD4   19      6       19      20      45      44
CQUAD4   20      6       20      21      46      45
$ ... 9976 like lines cut
$ Elements and Element Properties for region : COMPOSITO
$ Composite Property Reference Material: Laminado
$ Composite Material Description :
PCOMP    7
         3       .1      0.      YES     3       .1      45.     YES
         3       .1      -45.    YES     3       .1      90.     YES
         3       .1      90.     YES     3       .1      -45.    YES
         3       .1      45.     YES     3       .1      0.      YES
$ Pset: "COMPOSITO" will be imported as: "pcomp.7"
CQUAD4   6869    7       25      50      7387    6525
CQUAD4   6870    7       50      75      7388    7387
CQUAD4   6871    7       75      100     7389    7388
CQUAD4   6872    7       100     125     7390    7389
CQUAD4   6873    7       125     150     7391    7390
CQUAD4   6874    7       150     175     7392    7391
CQUAD4   6875    7       175     200     7393    7392
CQUAD4   6876    7       200     225     7394    7393
CQUAD4   6877    7       225     250     7395    7394
CQUAD4   6878    7       250     275     7396    7395
CQUAD4   6879    7       275     300     7397    7396
CQUAD4   6880    7       300     325     7398    7397
CQUAD4   6881    7       325     350     7399    7398
CQUAD4   6882    7       350     375     7400    7399
CQUAD4   6883    7       375     400     7401    7400
CQUAD4   6884    7       400     425     7402    7401
CQUAD4   6885    7       425     450     7403    7402
CQUAD4   6886    7       450     475     7404    7403
CQUAD4   6887    7       475     500     7405    7404
CQUAD4   6888    7       500     525     7406    7405
$ ... 3448 like lines cut
$ Referenced Material Records
$ Material Record : Al7475
$ Description of Material : Date: 14-Jul-21           Time: 15:08:11
MAT1     1      68947.57         .33
$ Material Record : Al2024
$ Description of Material : Date: 14-Jul-21           Time: 15:08:11
MAT1*    2               72394.953                       .33
*
$ Material Record : Ply
$ Description of Material : Date: 11-Nov-21           Time: 14:03:05
MAT8     3       100000. 10000.  .34     5400.   5400.   3050.
$ Nodes of the Entire Model
GRID     1               0.      0.      0.
GRID*    2                               0.              0.
*       6.54999971389771
GRID*    3                               0.              0.
*       13.0999994277954
GRID*    4                               0.              0.
*       19.6499996185303
GRID*    5                               0.              0.
*       26.1999988555908
GRID     6               0.      0.      32.75
GRID*    7                               0.              0.
*       39.2999992370605
GRID*    8                               0.              0.
*       45.8499946594238
GRID*    9                               0.              0.
*       52.3999977111816
GRID*    10                              0.              0.
*       58.9499931335449
GRID*    11                              0.              0.
*       65.4999923706055
GRID*    12                              0.              0.
*       72.0499954223633
GRID*    13                              0.              0.
*       78.5999908447266
GRID*    14                              0.              0.
*       85.1499938964844
GRID*    15                              0.              0.
*       91.6999816894531
GRID*    16                              0.              0.
*       98.2499847412109
GRID*    17                              0.              0.
*       104.799987792969
GRID*    18                              0.              0.
*       111.349983215332
GRID*    19                              0.              0.
*       117.899978637695
GRID*    20                              0.              0.
*       124.449981689453
GRID*    21                              0.              0.
*       130.999984741211
GRID*    22                              0.              0.
*       137.549987792969
GRID*    23                              0.              0.
*       144.099990844727
GRID*    24                              0.              0.
*       150.649978637695
GRID*    25                              0.              0.
*       157.199996948242
GRID*    26                             6.16470623016357 0.
*        0.
$ ... 4198 like lines cut
GRID     2176            524.    0.      0.
GRID*    2177                            524.            0.
*       6.55000114440918
GRID*    2178                            524.            0.
*       13.1000022888184
GRID*    2179                            524.            0.
*       19.6499996185303
GRID*    2180                            524.            0.
*       26.2000045776367
GRID*    2181                            524.            0.
*       32.7499961853027
GRID*    2182                            524.            0.
*       39.2999992370605
GRID*    2183                            524.            0.
*       45.8499870300293
GRID*    2184                            524.            0.
*       52.4000091552734
GRID*    2185                            524.            0.
*       58.9499969482422
GRID*    2186                            524.            0.
*       65.4999923706055
GRID*    2187                            524.            0.
*       72.0499954223633
GRID*    2188                            524.            0.
*       78.5999984741211
GRID*    2189                            524.            0.
*       85.1500091552734
GRID*    2190                            524.            0.
*       91.6999740600586
GRID     2191            524.    0.      98.25
GRID*    2192                            524.            0.
*       104.800010681152
GRID*    2193                            524.            0.
*       111.349975585938
GRID*    2194                            524.            0.
*        117.89998626709
GRID*    2195                            524.            0.
*       124.449996948242
GRID     2196            524.    0.      131.
GRID*    2197                            524.            0.
*       137.550003051758
GRID*    2198                            524.            0.
*       144.099990844727
GRID*    2199                            524.            0.
*       150.649993896484
GRID*    2200                            524.            0.
*       157.199996948242
GRID*    2201                           530.164733886719 0.
*        0.
GRID*    2202                           530.164733886719 0.
*       6.55000066757202
GRID*    2203                           530.164733886719 0.
*        13.100001335144
GRID*    2204                           530.164733886719 0.
*       19.6499996185303
GRID*    2205                           530.164733886719 0.
*       26.2000026702881
GRID*    2206                           530.164733886719 0.
*       32.7499961853027
GRID*    2207                           530.164733886719 0.
*       39.2999992370605
GRID*    2208                           530.164733886719 0.
*       45.8499908447266
GRID*    2209                           530.164733886719 0.
*       52.4000053405762
GRID*    2210                           530.164733886719 0.
*       58.9499931335449
GRID*    2211                           530.164733886719 0.
*       65.4999923706055
GRID*    2212                           530.164733886719 0.
*       72.0499954223633
GRID*    2213                           530.164733886719 0.
*       78.5999908447266
GRID*    2214                           530.164733886719 0.
*       85.1500015258789
GRID*    2215                           530.164733886719 0.
*       91.6999740600586
GRID*    2216                           530.164733886719 0.
*       98.2499847412109
$ ... 22600 like lines cut
$ Loads for Load Case : Default
SPCADD   2       1
LOAD     2       1.      1.      1       1.      3       1.      4
         1.      5
$ Displacement Constraints of Load Set : ENGASTE
SPC1     1       123456  1       THRU    25
SPC1     1       123456  851     875     1726    1750
SPC1     1       123456  2601    THRU    2625
$ Nodal Forces of Load Set : F1
FORCE*   1               2626            0               47658.629
*        0.              0.              1.
FORCE*   1               2650            0               47658.629
*        0.              0.              1.
$ Nodal Forces of Load Set : F2
FORCE    3       5226    0       15886.2 0.      0.      1.
FORCE    3       5250    0       15886.2 0.      0.      1.
$ Nodal Forces of Load Set : F3
FORCE    4       2626    0       6354.48 0.      -1.     0.
FORCE    4       5226    0       6354.48 0.      -1.     0.
$ Nodal Forces of Load Set : F4
FORCE*   5               2650            0               9531.7197
*        0.              1.              0.
FORCE*   5               5250            0               9531.7197
*        0.              1.              0.
$ Referenced Coordinate Frames
ENDDATA 6f468b1a
